data/wto_buses_xy.dss
clear
new object=circuit.wto

!redirect vsource.dss
edit object=vsource.source bus1=internalwto.1.2.3 phases=3 angle=0.00000 pu=1.00000 basekv=69.00000 r1=7.337 x1=19.114 r0=16.107 x0=55.393

!redirect wiredata.dss
new object=wiredata.500cu normamps=773.00000000 rac=0.11960000 runits=mi gmrac=0.02560000 gmrunits=ft radius=0.40549999 radunits=in
new object=wiredata.unkacsr normamps=100.00000000 rac=0.88800001 runits=mi gmrac=0.00446000 gmrunits=ft radius=0.19900000 radunits=in
new object=wiredata.1/0acsr normamps=230.00000000 rac=0.88800001 runits=mi gmrac=0.00446000 gmrunits=ft radius=0.19900000 radunits=in
new object=wiredata.2acsr normamps=180.00000000 rac=1.40999997 runits=mi gmrac=0.00418000 gmrunits=ft radius=0.15800001 radunits=in
new object=wiredata.3/0acsr normamps=300.00000000 rac=0.56000000 runits=mi gmrac=0.00600000 gmrunits=ft radius=0.25099999 radunits=in
new object=wiredata.4/0acsr normamps=340.00000000 rac=0.44499999 runits=mi gmrac=0.00814000 gmrunits=ft radius=0.28150001 radunits=in
new object=wiredata.4acsr normamps=140.00000000 rac=2.24000001 runits=mi gmrac=0.00452000 gmrunits=ft radius=0.12850000 radunits=in

!redirect cndata.dss
new object=cndata.350al normamps=325.00000000 rac=0.06300000 runits=kft gmrac=0.02178000 gmrunits=ft radius=0.34050000 radunits=in diacable=1.58999991 diains=1.34999990 rstrand=7.14100027 gmrstrand=0.00389400 diastrand=0.12000000 inslayer=0.33449996 k=37 epsr=2.40000
new object=cndata.1/0al normamps=166.00000000 rac=0.16800000 runits=kft gmrac=0.01140000 gmrunits=ft radius=0.18649980 radunits=in diacable=1.15799999 diains=1.02999961 rstrand=2.75199986 gmrstrand=0.00207681 diastrand=0.06400019 inslayer=0.32850000 k=16 epsr=2.30000
new object=cndata.unkbusug normamps=100.00000000 rac=0.16800000 runits=kft gmrac=0.01140000 gmrunits=ft radius=0.18649980 radunits=in diacable=1.15799999 diains=1.02999961 rstrand=2.75199986 gmrstrand=0.00207681 diastrand=0.06400019 inslayer=0.32850000 k=16 epsr=2.30000
new object=cndata.unkal normamps=100.00000000 rac=0.16800000 runits=kft gmrac=0.01140000 gmrunits=ft radius=0.18649980 radunits=in diacable=1.15799999 diains=1.02999961 rstrand=2.75199986 gmrstrand=0.00207681 diastrand=0.06400019 inslayer=0.32850000 k=16 epsr=2.30000
new object=cndata.4/0al normamps=245.00000000 rac=0.10500000 runits=kft gmrac=0.01666000 gmrunits=ft radius=0.26400000 radunits=in diacable=1.40000403 diains=1.16999996 rstrand=5.81400013 gmrstrand=0.00373182 diastrand=0.11500204 inslayer=0.32099998 k=19 epsr=2.40000

!redirect linecode.dss
new object=linecode.1/0acsr_n4acsr_systemcnstdefault_c nphases=1 units=mi rmatrix=[1.11292300] xmatrix=[1.46887600] cmatrix=[11.86289100]
new object=linecode.1/0acsr_n4acsr_systemcnstdefault_a nphases=1 units=mi rmatrix=[1.11292300] xmatrix=[1.46887600] cmatrix=[11.86289300]
new object=linecode.ppp1/0al_systemcnstdefault_abc nphases=3 units=mi rmatrix=[1.32756200,0.18213700,0.18213700|0.18213700,1.32756200,0.18213700|0.18213700,0.18213700,1.32756200] xmatrix=[0.52366200,-0.05425800,-0.05425800|-0.05425800,0.52366200,-0.05425800|-0.05425800,-0.05425800,0.52366200] cmatrix=[189.98159800,0.00000000,0.00000000|0.00000000,189.98159800,0.00000000|0.00000000,0.00000000,189.98159800]
new object=linecode.punkbusug_systemcnstdefault_a nphases=1 units=mi rmatrix=[1.49777300] xmatrix=[0.56336600] cmatrix=[189.98159800]
new object=linecode.punkal_systemcnstdefault_a nphases=1 units=mi rmatrix=[1.49777300] xmatrix=[0.56336600] cmatrix=[189.98159800]
new object=linecode.pn4acsr_systemcnstdefault_a nphases=1 units=mi rmatrix=[2.46492300] xmatrix=[1.46725400] cmatrix=[11.21265200]
new object=linecode.p1/0al_systemcnstdefault_a nphases=1 units=mi rmatrix=[1.49777200] xmatrix=[0.56336600] cmatrix=[189.98159800]
new object=linecode.ppp350al_systemcnstdefault_abc nphases=3 units=mi rmatrix=[0.77459800,0.21946500,0.21946500|0.21946500,0.77459800,0.21946500|0.21946500,0.21946500,0.77459800] xmatrix=[0.50639100,-0.04005800,-0.04005800|-0.04005800,0.50639100,-0.04005800|-0.04005800,-0.04005800,0.50639100] cmatrix=[289.53054800,0.00000000,0.00000000|0.00000000,289.53054800,0.00000000|0.00000000,0.00000000,289.53054800]
new object=linecode.1/0acsr_n4acsr_systemcnstdefault_b nphases=1 units=mi rmatrix=[1.11292300] xmatrix=[1.46887600] cmatrix=[11.86289300]
new object=linecode.p1/0al_systemcnstdefault_c nphases=1 units=mi rmatrix=[1.49777200] xmatrix=[0.56336600] cmatrix=[189.98159800]
new object=linecode.pn4acsr_systemcnstdefault_c nphases=1 units=mi rmatrix=[2.46492300] xmatrix=[1.46725400] cmatrix=[11.21265200]
new object=linecode.ppp3/0acsr_n1/0acsr_systemcnstdefault_abc nphases=3 units=mi rmatrix=[0.74432000,0.18432000,0.18432000|0.18432000,0.74432000,0.18432000|0.18432000,0.18432000,0.74432000] xmatrix=[1.29038300,0.47068900,0.47068900|0.47068900,1.29038300,0.47068900|0.47068900,0.47068900,1.29038300] cmatrix=[13.62562200,-2.62267800,-2.62267800|-2.62267800,13.62562200,-2.62267800|-2.62267800,-2.62267800,13.62562200]
new object=linecode.pppn500cu_systemcnstdefault_abc nphases=3 units=mi rmatrix=[0.17447800,0.05487800,0.05487800|0.05487800,0.17447800,0.05487800|0.05487800,0.05487800,0.17447800] xmatrix=[1.00181100,0.35816400,0.35816400|0.35816400,1.00181100,0.35816400|0.35816400,0.35816400,1.00181100] cmatrix=[14.84648400,-2.95227500,-2.95227500|-2.95227500,14.84648400,-2.95227500|-2.95227500,-2.95227500,14.84648400]
new object=linecode.ppp1/0acsr_n4acsr_systemcnstdefault_abc nphases=3 units=mi rmatrix=[1.11710700,0.22910700,0.22910700|0.22910700,1.11710700,0.22910700|0.22910700,0.22910700,1.11710700] xmatrix=[1.46511600,0.60943000,0.60943000|0.60943000,1.46511600,0.60943000|0.60943000,0.60943000,1.46511600] cmatrix=[13.10274500,-2.48824800,-2.48824800|-2.48824800,13.10274500,-2.48824800|-2.48824800,-2.48824800,13.10274500]
new object=linecode.pppn4acsr_systemcnstdefault_abc nphases=3 units=mi rmatrix=[2.46910700,0.22910700,0.22910700|0.22910700,2.46910700,0.22910700|0.22910700,0.22910700,2.46910700] xmatrix=[1.46349400,0.60943000,0.60943000|0.60943000,1.46349400,0.60943000|0.60943000,0.60943000,1.46349400] cmatrix=[12.26315800,-2.22369500,-2.22369500|-2.22369500,12.26315800,-2.22369500|-2.22369500,-2.22369500,12.26315800]
new object=linecode.pppnunkacsr_systemcnstdefault_abc nphases=3 units=mi rmatrix=[1.07232000,0.18432000,0.18432000|0.18432000,1.07232000,0.18432000|0.18432000,0.18432000,1.07232000] xmatrix=[1.32637500,0.47068900,0.47068900|0.47068900,1.32637500,0.47068900|0.47068900,0.47068900,1.32637500] cmatrix=[13.12797100,-2.46302400,-2.46302400|-2.46302400,13.12797100,-2.46302400|-2.46302400,-2.46302400,13.12797100]
new object=linecode.pn4acsr_systemcnstdefault_b nphases=1 units=mi rmatrix=[2.46492300] xmatrix=[1.46725400] cmatrix=[11.21265200]
new object=linecode.pppn1/0acsr_systemcnstdefault_abc nphases=3 units=mi rmatrix=[1.07232000,0.18432000,0.18432000|0.18432000,1.07232000,0.18432000|0.18432000,0.18432000,1.07232000] xmatrix=[1.32637400,0.47068900,0.47068900|0.47068900,1.32637400,0.47068900|0.47068900,0.47068900,1.32637400] cmatrix=[13.12797200,-2.46302400,-2.46302400|-2.46302400,13.12797200,-2.46302400|-2.46302400,-2.46302400,13.12797200]
new object=linecode.p4/0al_systemcnstdefault_a nphases=1 units=mi rmatrix=[1.21320200] xmatrix=[0.87931600] cmatrix=[248.56210300]
new object=linecode.p1/0al_systemcnstdefault_b nphases=1 units=mi rmatrix=[1.49777200] xmatrix=[0.56336600] cmatrix=[189.98159800]
new object=linecode.4/0acsr_n1/0acsr_systemcnstdefault_a nphases=1 units=mi rmatrix=[0.62588600] xmatrix=[1.26107400] cmatrix=[12.48916400]
new object=linecode.pppn4/0acsr_systemcnstdefault_abc nphases=3 units=mi rmatrix=[0.57047900,0.12547900,0.12547900|0.12547900,0.57047900,0.12547900|0.12547900,0.12547900,0.57047900] xmatrix=[1.19347500,0.41079400,0.41079400|0.41079400,1.19347500,0.41079400|0.41079400,0.41079400,1.19347500] cmatrix=[13.91025700,-2.68363700,-2.68363700|-2.68363700,13.91025700,-2.68363700|-2.68363700,-2.68363700,13.91025700]
new object=linecode.pn2acsr_systemcnstdefault_b nphases=1 units=mi rmatrix=[1.62563000] xmatrix=[1.40291600] cmatrix=[11.53216400]
new object=linecode.punkacsr_systemcnstdefault_a nphases=1 units=mi rmatrix=[0.98330200] xmatrix=[1.61950800] cmatrix=[11.01212700]
new object=linecode.pppunkbusug_systemcnstdefault_abc nphases=3 units=mi rmatrix=[1.32756200,0.18213700,0.18213700|0.18213700,1.32756200,0.18213700|0.18213700,0.18213700,1.32756200] xmatrix=[0.52366200,-0.05425800,-0.05425800|-0.05425800,0.52366200,-0.05425800|-0.05425800,-0.05425800,0.52366200] cmatrix=[189.98159800,0.00000000,0.00000000|0.00000000,189.98159800,0.00000000|0.00000000,0.00000000,189.98159800]
new object=linecode.pppunkal_systemcnstdefault_abc nphases=3 units=mi rmatrix=[1.32756200,0.18213700,0.18213700|0.18213700,1.32756200,0.18213700|0.18213700,0.18213700,1.32756200] xmatrix=[0.52366200,-0.05425800,-0.05425800|-0.05425800,0.52366200,-0.05425800|-0.05425800,-0.05425800,0.52366200] cmatrix=[189.98158300,0.00000000,0.00000000|0.00000000,189.98158300,0.00000000|0.00000000,0.00000000,189.98158300]
new object=linecode.unkacsr_n4acsr_systemcnstdefault_c nphases=1 units=mi rmatrix=[1.11292300] xmatrix=[1.46887600] cmatrix=[11.86289300]
new object=linecode.p4/0al_systemcnstdefault_c nphases=1 units=mi rmatrix=[1.21320200] xmatrix=[0.87931600] cmatrix=[248.56211900]
new object=linecode.punkbusug_systemcnstdefault_c nphases=1 units=mi rmatrix=[1.49777200] xmatrix=[0.56336600] cmatrix=[189.98158300]
new object=linecode.punkal_systemcnstdefault_c nphases=1 units=mi rmatrix=[1.49777200] xmatrix=[0.56336600] cmatrix=[189.98159800]
new object=linecode.p350al_systemcnstdefault_c nphases=1 units=mi rmatrix=[0.95909600] xmatrix=[0.58536200] cmatrix=[289.53057900]
new object=linecode.punkal_systemcnstdefault_b nphases=1 units=mi rmatrix=[1.49777200] xmatrix=[0.56336600] cmatrix=[189.98159800]
new object=linecode.ppp4/0acsr_systemcnstdefault_abc nphases=3 units=mi rmatrix=[0.54030200,0.09530200,0.09530200|0.09530200,0.54030200,0.09530200|0.09530200,0.09530200,0.54030200] xmatrix=[1.54650400,0.76382200,0.76382200|0.76382200,1.54650400,0.76382200|0.76382200,0.76382200,1.54650400] cmatrix=[13.43894100,-3.15495000,-3.15495000|-3.15495000,13.43894100,-3.15495000|-3.15495000,-3.15495000,13.43894100]

!redirect loadshape.dss
new object=loadshape.default interval=1 npts=24 mult=[0.677,0.6256,0.6087,0.5833,0.58028,0.6025,0.657,0.7477,0.832,0.88,0.94,0.989,0.985,0.98,0.9898,0.999,1,0.958,0.936,0.913,0.876,0.876,0.828,0.756]

!redirect growthshape.dss
new object=growthshape.default npts=2 year=(1,20) mult=(1.0249999999999999,1.0249999999999999)

!redirect tcc_curve.dss
new object=tcc_curve.a npts=5 c_array=[1,2.5,4.5,8,14] t_array=[0.15,0.07,0.05,0.045,0.045]
new object=tcc_curve.d npts=5 c_array=[1,2.5,4.5,8,14] t_array=[6,0.7,0.2,0.06,0.02]
new object=tcc_curve.tlink npts=7 c_array=[2,2.1,3,4,6,22,50] t_array=[300,100,10.1,4,1.4,0.1,0.02]
new object=tcc_curve.klink npts=6 c_array=[2,2.2,3,4,6,30] t_array=[300,20,4,1.3,0.41,0.02]
new object=tcc_curve.uv1547 npts=2 c_array=[0.5,0.9] t_array=[0.166,2]
new object=tcc_curve.ov1547 npts=2 c_array=[1.1,1.2] t_array=[2,0.166]
new object=tcc_curve.mod_inv npts=15 c_array=[1.1,1.3,1.5,2,3,4,5,6,7,8,9,10,20,50,100] t_array=[27.1053,9.9029,6.439,3.8032,2.4322,1.9458,1.6883,1.5255,1.4117,1.3267,1.2604,1.2068,0.9481,0.7468,0.6478]
new object=tcc_curve.very_inv npts=15 c_array=[1.1,1.3,1.5,2,3,4,5,6,7,8,9,10,20,50,100] t_array=[93.872,28.9113,16.179,7.0277,2.9423,1.7983,1.3081,1.0513,0.8995,0.8023,0.7361,0.6891,0.5401,0.4988,0.493]
new object=tcc_curve.ext_inv npts=15 c_array=[1.1,1.3,1.5,2,3,4,5,6,7,8,9,10,20,50,100] t_array=[134.407,40.9913,22.6817,9.5217,3.6467,2.0017,1.2967,0.9274,0.7092,0.5693,0.4742,0.4065,0.1924,0.133,0.1245]
new object=tcc_curve.definite npts=3 c_array=[1,1.001,100] t_array=[300,1,1]

!redirect spectrum.dss
new object=spectrum.default numharm=7 harmonic=(1,3,5,7,9,11,13) %mag=(100,33,20,14.000000000000002,11,9,7.0000000000000009) angle=(0,0,0,0,0,0,0)
new object=spectrum.defaultload numharm=7 harmonic=(1,3,5,7,9,11,13) %mag=(100,1.5,20,14.000000000000002,1,9,7.0000000000000009) angle=(0,180,180,180,180,180,180)
new object=spectrum.defaultgen numharm=7 harmonic=(1,3,5,7,9,11,13) %mag=(100,5,3,1.5,1,0.69999999999999996,0.5) angle=(0,0,0,0,0,0,0)
new object=spectrum.defaultvsource numharm=1 harmonic=(1) %mag=(100) angle=(0)
new object=spectrum.linear numharm=1 harmonic=(1) %mag=(100) angle=(0)
new object=spectrum.pwm6 numharm=13 harmonic=(1,3,5,7,9,11,13,15,17,19,21,23,25) %mag=(100,4.4000000000000004,76.5,62.700000000000003,2.8999999999999999,24.800000000000001,12.699999999999999,0.5,7.0999999999999996,8.4000000000000004,0.90000000000000013,4.4000000000000004,3.3000000000000003) angle=(-103,-5,28,-180,-33,-59,79,36,-253,-124,3,-30,86)
new object=spectrum.dc6 numharm=10 harmonic=(1,3,5,7,9,11,13,15,17,19) %mag=(100,1.2,33.600000000000001,1.6000000000000001,0.40000000000000002,8.6999999999999993,1.2,0.29999999999999999,4.5,1.3) angle=(-75,28,156,29,-91,49,54,148,-57,-46)

!redirect line.dss
new object=line.157_d3_10522_d3_4 bus1=151_d3_41819.1.2.3 bus2=157_d3_10522_d3_4.1.2.3 length=223.6111 units=ft linecode=ppp1/0acsr_n4acsr_systemcnstdefault_abc normamps=400 emergamps=600
new object=line.157_d3_66760_d3_3 bus1=151_d3_786.1.2.3 bus2=157_d3_66760_d3_3.1.2.3 length=5.463911 units=ft linecode=ppp3/0acsr_n1/0acsr_systemcnstdefault_abc normamps=400 emergamps=600
new object=line.oh164054 bus1=wto.1.2.3 bus2=oh164054.1.2.3 length=4.040024 units=ft linecode=pppnunkacsr_systemcnstdefault_abc normamps=400 emergamps=600
new object=line.157_d3_9925_d3_1 bus1=157_d3_9924_d3_1.1.2.3 bus2=157_d3_9925_d3_1.1.2.3 length=182.4894 units=ft linecode=pppn4acsr_systemcnstdefault_abc normamps=400 emergamps=600
new object=line.157_d3_9897_d3_1 bus1=157_d3_10523_d3_1.1.2.3 bus2=157_d3_9897_d3_1.1.2.3 length=477.3767 units=ft linecode=pppn4acsr_systemcnstdefault_abc normamps=400 emergamps=600
new object=line.157_d3_25304_d3_1 bus1=157_d3_25303_d3_1.1.2.3 bus2=157_d3_25304_d3_1.1.2.3 length=790.1571 units=ft linecode=pppn4acsr_systemcnstdefault_abc normamps=400 emergamps=600
new object=line.157_d3_26020_d3_7 bus1=157_d3_26020_d3_6.1.2.3 bus2=157_d3_26020_d3_7.1.2.3 length=2.438648 units=ft linecode=pppn500cu_systemcnstdefault_abc normamps=400 emergamps=600
new object=line.157_d3_10523_d3_1 bus1=157_d3_10522_d3_4.1.2.3 bus2=157_d3_10523_d3_1.1.2.3 length=359.0379 units=ft linecode=ppp1/0acsr_n4acsr_systemcnstdefault_abc normamps=400 emergamps=600
new object=line.157_d3_26021_d3_2 bus1=150_d3_12.1.2.3 bus2=157_d3_26021_d3_2.1.2.3 length=6.312467 units=ft linecode=pppn500cu_systemcnstdefault_abc normamps=400 emergamps=600
new object=line.157_d3_9924_d3_1 bus1=157_d3_25304_d3_1.1.2.3 bus2=157_d3_9924_d3_1.1.2.3 length=470.6799 units=ft linecode=pppn4acsr_systemcnstdefault_abc normamps=400 emergamps=600
new object=line.157_d3_26022_d3_6 bus1=157_d3_26022_d3_5.1.2.3 bus2=157_d3_26022_d3_6.1.2.3 length=19.31775 units=ft linecode=pppn500cu_systemcnstdefault_abc normamps=400 emergamps=600
new object=line.157_d3_66759_d3_2 bus1=151_d3_42214.1.2.3 bus2=157_d3_66759_d3_2.1.2.3 length=36.96063 units=ft linecode=ppp3/0acsr_n1/0acsr_systemcnstdefault_abc normamps=400 emergamps=600
new object=line.157_d3_10839_d3_4 bus1=151_d3_42221-b.1.2.3 bus2=157_d3_10839_d3_4.1.2.3 length=6.636166 units=ft linecode=pppnunkacsr_systemcnstdefault_abc normamps=400 emergamps=600
new object=line.157_d3_26019_d3_2 bus1=1390_d3_24438.1.2.3 bus2=157_d3_26019_d3_2.1.2.3 length=6.053481 units=ft linecode=pppn500cu_systemcnstdefault_abc normamps=400 emergamps=600
new object=line.157_d3_9896_d3_3 bus1=157_d3_66760_d3_3.1.2.3 bus2=157_d3_9896_d3_3.1.2.3 length=67.62793 units=ft linecode=ppp1/0acsr_n4acsr_systemcnstdefault_abc normamps=400 emergamps=600
new object=line.157_d3_26022_d3_5 bus1=151_d3_42220.1.2.3 bus2=157_d3_26022_d3_5.1.2.3 length=2.620429 units=ft linecode=pppn500cu_systemcnstdefault_abc normamps=400 emergamps=600
new object=line.157_d3_26031_d3_3 bus1=154_d3_98.1.2.3 bus2=157_d3_26031_d3_3.1.2.3 length=2.639108 units=ft linecode=ppp3/0acsr_n1/0acsr_systemcnstdefault_abc normamps=400 emergamps=600
new object=line.157_d3_26024_d3_6 bus1=157_d3_26022_d3_6.1.2.3 bus2=157_d3_26024_d3_6.1.2.3 length=5.57021 units=ft linecode=pppn500cu_systemcnstdefault_abc normamps=400 emergamps=600
new object=line.157_d3_10840_d3_2 bus1=155_d3_17500.1.2.3 bus2=157_d3_10840_d3_2.1.2.3 length=6.489225 units=ft linecode=pppnunkacsr_systemcnstdefault_abc normamps=400 emergamps=600
new object=line.157_d3_26018_d3_2 bus1=151_d3_42219.1.2.3 bus2=157_d3_26018_d3_2.1.2.3 length=4.59978 units=ft linecode=pppn500cu_systemcnstdefault_abc normamps=400 emergamps=600
new object=line.157_d3_26020_d3_6 bus1=151_d3_42600.1.2.3 bus2=157_d3_26020_d3_6.1.2.3 length=6.81496 units=ft linecode=pppn500cu_systemcnstdefault_abc normamps=400 emergamps=600
new object=line.157_d3_25303_d3_1 bus1=157_d3_10523_d3_1.1.2.3 bus2=157_d3_25303_d3_1.1.2.3 length=850.2236 units=ft linecode=pppn1/0acsr_systemcnstdefault_abc normamps=400 emergamps=600
new object=line.157_d3_9898_d3_1 bus1=157_d3_9925_d3_1.2 bus2=157_d3_9898_d3_1.2 length=491.4839 units=ft linecode=pn4acsr_systemcnstdefault_b normamps=400 emergamps=600
new object=line.157_d3_10378_d3_1 bus1=157_d3_10377_d3_1.2 bus2=157_d3_10378_d3_1.2 length=285.3706 units=ft linecode=pn4acsr_systemcnstdefault_b normamps=400 emergamps=600
new object=line.157_d3_10377_d3_1 bus1=157_d3_9898_d3_1.2 bus2=157_d3_10377_d3_1.2 length=272.5341 units=ft linecode=pn4acsr_systemcnstdefault_b normamps=400 emergamps=600
new object=line.157_d3_10379_d3_1 bus1=157_d3_10378_d3_1.2 bus2=157_d3_10379_d3_1.2 length=488.5781 units=ft linecode=pn4acsr_systemcnstdefault_b normamps=400 emergamps=600
new object=line.157_d3_9900_d3_1 bus1=157_d3_9925_d3_1.1 bus2=157_d3_9900_d3_1.1 length=432.8098 units=ft linecode=pn4acsr_systemcnstdefault_a normamps=400 emergamps=600
new object=line.157_d3_10380_d3_1 bus1=157_d3_9925_d3_1.1.2.3 bus2=157_d3_10380_d3_1.1.2.3 length=669.5968 units=ft linecode=pppn4acsr_systemcnstdefault_abc normamps=400 emergamps=600
new object=line.157_d3_10381_d3_1 bus1=157_d3_10380_d3_1.1.2.3 bus2=157_d3_10381_d3_1.1.2.3 length=217.4238 units=ft linecode=pppn4acsr_systemcnstdefault_abc normamps=400 emergamps=600
new object=line.157_d3_10517_d3_1 bus1=157_d3_10381_d3_1.1.2.3 bus2=157_d3_10517_d3_1.1.2.3 length=108.5146 units=ft linecode=pppn4acsr_systemcnstdefault_abc normamps=400 emergamps=600
new object=line.157_d3_10518_d3_1 bus1=157_d3_10517_d3_1.1.2.3 bus2=157_d3_10518_d3_1.1.2.3 length=133.8333 units=ft linecode=pppn4acsr_systemcnstdefault_abc normamps=400 emergamps=600
new object=line.157_d3_9901_d3_1 bus1=157_d3_10518_d3_1.2 bus2=157_d3_9901_d3_1.2 length=221.4284 units=ft linecode=pn4acsr_systemcnstdefault_b normamps=400 emergamps=600
new object=line.157_d3_9902_d3_1 bus1=157_d3_10518_d3_1.1.2.3 bus2=157_d3_9902_d3_1.1.2.3 length=231.5265 units=ft linecode=pppn4acsr_systemcnstdefault_abc normamps=400 emergamps=600
new object=line.157_d3_9904_d3_1 bus1=157_d3_9902_d3_1.1.2.3 bus2=157_d3_9904_d3_1.1.2.3 length=47.42733 units=ft linecode=pppn4acsr_systemcnstdefault_abc normamps=400 emergamps=600
new object=line.157_d3_9905_d3_1 bus1=157_d3_9904_d3_1.1.2.3 bus2=157_d3_9905_d3_1.1.2.3 length=270.0163 units=ft linecode=pppn4acsr_systemcnstdefault_abc normamps=400 emergamps=600
new object=line.157_d3_30237_d3_1 bus1=157_d3_9904_d3_1.1.2.3 bus2=157_d3_30237_d3_1.1.2.3 length=5.000016 units=ft linecode=pppn4acsr_systemcnstdefault_abc normamps=400 emergamps=600
new object=line.157_d3_9906_d3_1 bus1=157_d3_9902_d3_1.1.2.3 bus2=157_d3_9906_d3_1.1.2.3 length=482.0963 units=ft linecode=pppn4acsr_systemcnstdefault_abc normamps=400 emergamps=600
new object=line.157_d3_9907_d3_2 bus1=157_d3_66760_d3_3.1.2.3 bus2=157_d3_9907_d3_2.1.2.3 length=249.4756 units=ft linecode=ppp3/0acsr_n1/0acsr_systemcnstdefault_abc normamps=400 emergamps=600
new object=line.157_d3_10325_d3_1 bus1=157_d3_10324_d3_1.3 bus2=157_d3_10325_d3_1.3 length=193.9879 units=ft linecode=pn4acsr_systemcnstdefault_c normamps=400 emergamps=600
new object=line.157_d3_25209_d3_1 bus1=157_d3_10327_d3_1.1.2.3 bus2=157_d3_25209_d3_1.1.2.3 length=72.24091 units=ft linecode=pppn4acsr_systemcnstdefault_abc normamps=400 emergamps=600
new object=line.157_d3_25210_d3_1 bus1=157_d3_25209_d3_1.1.2.3 bus2=157_d3_25210_d3_1.1.2.3 length=384.8954 units=ft linecode=pppn4acsr_systemcnstdefault_abc normamps=400 emergamps=600
new object=line.157_d3_25211_d3_1 bus1=157_d3_25210_d3_1.1.2.3 bus2=157_d3_25211_d3_1.1.2.3 length=383.0836 units=ft linecode=pppn4acsr_systemcnstdefault_abc normamps=400 emergamps=600
new object=line.157_d3_25212_d3_1 bus1=157_d3_25211_d3_1.1.2.3 bus2=157_d3_25212_d3_1.1.2.3 length=387.0854 units=ft linecode=pppn4acsr_systemcnstdefault_abc normamps=400 emergamps=600
new object=line.157_d3_25213_d3_1 bus1=157_d3_25212_d3_1.1.2.3 bus2=157_d3_25213_d3_1.1.2.3 length=43.07416 units=ft linecode=pppn4acsr_systemcnstdefault_abc normamps=400 emergamps=600
new object=line.157_d3_25214_d3_1 bus1=157_d3_25213_d3_1.1.2.3 bus2=157_d3_25214_d3_1.1.2.3 length=375.7317 units=ft linecode=pppn4acsr_systemcnstdefault_abc normamps=400 emergamps=600
new object=line.157_d3_25215_d3_1 bus1=157_d3_25214_d3_1.1.2.3 bus2=157_d3_25215_d3_1.1.2.3 length=355.9606 units=ft linecode=pppn4acsr_systemcnstdefault_abc normamps=400 emergamps=600
new object=line.157_d3_10329_d3_1 bus1=157_d3_10278_d3_1.3 bus2=157_d3_10329_d3_1.3 length=701.4348 units=ft linecode=pn4acsr_systemcnstdefault_c normamps=400 emergamps=600
new object=line.157_d3_10330_d3_1 bus1=157_d3_10329_d3_1.3 bus2=157_d3_10330_d3_1.3 length=225.5697 units=ft linecode=pn4acsr_systemcnstdefault_c normamps=400 emergamps=600
new object=line.157_d3_10331_d3_1 bus1=157_d3_10330_d3_1.3 bus2=157_d3_10331_d3_1.3 length=84.21458 units=ft linecode=pn4acsr_systemcnstdefault_c normamps=400 emergamps=600
new object=line.157_d3_10332_d3_1 bus1=157_d3_10331_d3_1.3 bus2=157_d3_10332_d3_1.3 length=300.9813 units=ft linecode=pn4acsr_systemcnstdefault_c normamps=400 emergamps=600
new object=line.157_d3_10333_d3_1 bus1=157_d3_10332_d3_1.3 bus2=157_d3_10333_d3_1.3 length=182.0801 units=ft linecode=pn4acsr_systemcnstdefault_c normamps=400 emergamps=600
new object=line.158_d3_2271_d3_1 bus1=157_d3_10277_d3_1.1 bus2=158_d3_2271_d3_1.1 length=197.2107 units=ft linecode=p4/0al_systemcnstdefault_a normamps=400 emergamps=600
new object=line.157_d3_58708_d3_6 bus1=157_d3_10328_d3_1.2 bus2=157_d3_58708_d3_6.2 length=2.7188 units=ft linecode=pn4acsr_systemcnstdefault_b normamps=400 emergamps=600
new object=line.157_d3_58709_d3_12 bus1=155_d3_16309.2 bus2=157_d3_58709_d3_12.2 length=273.5039 units=ft linecode=pn4acsr_systemcnstdefault_b normamps=400 emergamps=600
new object=line.157_d3_10276_d3_3 bus1=157_d3_58709_d3_12.2 bus2=157_d3_10276_d3_3.2 length=609.8506 units=ft linecode=pn4acsr_systemcnstdefault_b normamps=400 emergamps=600
new object=line.157_d3_10830_d3_5 bus1=157_d3_58709_d3_12.2 bus2=157_d3_10830_d3_5.2 length=1161.927 units=ft linecode=pn4acsr_systemcnstdefault_b normamps=400 emergamps=600
new object=line.157_d3_30245_d3_1 bus1=157_d3_10830_d3_5.2 bus2=157_d3_30245_d3_1.2 length=5.000098 units=ft linecode=pn4acsr_systemcnstdefault_b normamps=400 emergamps=600
new object=line.158_d3_21101_d3_1 bus1=155_d3_1164.2 bus2=158_d3_21101_d3_1.2 length=338.127 units=ft linecode=p1/0al_systemcnstdefault_b normamps=400 emergamps=600
new object=line.158_d3_19773_d3_1 bus1=158_d3_21101_d3_1.2 bus2=158_d3_19773_d3_1.2 length=292.2245 units=ft linecode=p1/0al_systemcnstdefault_b normamps=400 emergamps=600
new object=line.158_d3_19774_d3_1 bus1=158_d3_21101_d3_1.2 bus2=158_d3_19774_d3_1.2 length=1277.568 units=ft linecode=p1/0al_systemcnstdefault_b normamps=400 emergamps=600
new object=line.157_d3_10831_d3_1 bus1=157_d3_10830_d3_5.2 bus2=157_d3_10831_d3_1.2 length=247.1955 units=ft linecode=pn4acsr_systemcnstdefault_b normamps=400 emergamps=600
new object=line.157_d3_10274_d3_1 bus1=157_d3_10268_d3_1.1 bus2=157_d3_10274_d3_1.1 length=284.7037 units=ft linecode=pn4acsr_systemcnstdefault_a normamps=400 emergamps=600
new object=line.157_d3_10340_d3_1 bus1=157_d3_26377_d3_2.1 bus2=157_d3_10340_d3_1.1 length=199.2207 units=ft linecode=pn4acsr_systemcnstdefault_a normamps=400 emergamps=600
new object=line.157_d3_10241_d3_4 bus1=157_d3_10239_d3_1.1.2.3 bus2=157_d3_10241_d3_4.1.2.3 length=502.0179 units=ft linecode=pppn4acsr_systemcnstdefault_abc normamps=400 emergamps=600
new object=line.157_d3_10242_d3_2 bus1=157_d3_10241_d3_4.1.2.3 bus2=157_d3_10242_d3_2.1.2.3 length=27.0889 units=ft linecode=pppn4acsr_systemcnstdefault_abc normamps=400 emergamps=600
new object=line.157_d3_79200_d3_2 bus1=157_d3_10242_d3_2.1.2.3 bus2=157_d3_79200_d3_2.1.2.3 length=2.99984 units=ft linecode=pppn4acsr_systemcnstdefault_abc normamps=400 emergamps=600
new object=line.158_d3_37485_d3_4 bus1=155_d3_23912.1.2.3 bus2=158_d3_37485_d3_4.1.2.3 length=7.778141 units=ft linecode=ppp1/0al_systemcnstdefault_abc normamps=400 emergamps=600
new object=line.157_d3_10248_d3_1 bus1=157_d3_10220_d3_1.1 bus2=157_d3_10248_d3_1.1 length=100.4803 units=ft linecode=pn4acsr_systemcnstdefault_a normamps=400 emergamps=600
new object=line.157_d3_19980_d3_1 bus1=157_d3_10248_d3_1.1 bus2=157_d3_19980_d3_1.1 length=848.6092 units=ft linecode=pn4acsr_systemcnstdefault_a normamps=400 emergamps=600
new object=line.157_d3_19981_d3_1 bus1=157_d3_19980_d3_1.1 bus2=157_d3_19981_d3_1.1 length=848.488 units=ft linecode=pn4acsr_systemcnstdefault_a normamps=400 emergamps=600
new object=line.157_d3_10257_d3_1 bus1=157_d3_19981_d3_1.1 bus2=157_d3_10257_d3_1.1 length=395.803 units=ft linecode=pn4acsr_systemcnstdefault_a normamps=400 emergamps=600
new object=line.157_d3_10256_d3_1 bus1=157_d3_10257_d3_1.1 bus2=157_d3_10256_d3_1.1 length=511.6562 units=ft linecode=pn4acsr_systemcnstdefault_a normamps=400 emergamps=600
new object=line.157_d3_10255_d3_1 bus1=157_d3_10256_d3_1.1 bus2=157_d3_10255_d3_1.1 length=170.5985 units=ft linecode=pn4acsr_systemcnstdefault_a normamps=400 emergamps=600
new object=line.157_d3_10254_d3_1 bus1=157_d3_10255_d3_1.1 bus2=157_d3_10254_d3_1.1 length=114.5388 units=ft linecode=pn4acsr_systemcnstdefault_a normamps=400 emergamps=600
new object=line.157_d3_32589_d3_1 bus1=157_d3_10254_d3_1.1 bus2=157_d3_32589_d3_1.1 length=302.8648 units=ft linecode=pn4acsr_systemcnstdefault_a normamps=400 emergamps=600
new object=line.157_d3_32590_d3_1 bus1=157_d3_32589_d3_1.1 bus2=157_d3_32590_d3_1.1 length=5 units=ft linecode=pn4acsr_systemcnstdefault_a normamps=400 emergamps=600
new object=line.158_d3_25153_d3_1 bus1=155_d3_1543.1 bus2=158_d3_25153_d3_1.1 length=76.90297 units=ft linecode=p1/0al_systemcnstdefault_a normamps=400 emergamps=600
new object=line.158_d3_25154_d3_1 bus1=158_d3_25153_d3_1.1 bus2=158_d3_25154_d3_1.1 length=700.6265 units=ft linecode=p1/0al_systemcnstdefault_a normamps=400 emergamps=600
new object=line.157_d3_10222_d3_1 bus1=157_d3_10219_d3_1.1.2.3 bus2=157_d3_10222_d3_1.1.2.3 length=197.1757 units=ft linecode=ppp1/0acsr_n4acsr_systemcnstdefault_abc normamps=400 emergamps=600
new object=line.157_d3_10223_d3_1 bus1=151_d3_619.1.2.3 bus2=157_d3_10223_d3_1.1.2.3 length=783.902 units=ft linecode=ppp1/0acsr_n4acsr_systemcnstdefault_abc normamps=400 emergamps=600
new object=line.157_d3_10224_d3_1 bus1=157_d3_10223_d3_1.1 bus2=157_d3_10224_d3_1.1 length=347.088 units=ft linecode=pn4acsr_systemcnstdefault_a normamps=400 emergamps=600
new object=line.157_d3_10225_d3_1 bus1=157_d3_10223_d3_1.1.2.3 bus2=157_d3_10225_d3_1.1.2.3 length=252.3568 units=ft linecode=ppp1/0acsr_n4acsr_systemcnstdefault_abc normamps=400 emergamps=600
new object=line.157_d3_10226_d3_1 bus1=157_d3_10225_d3_1.3 bus2=157_d3_10226_d3_1.3 length=217.9931 units=ft linecode=pn4acsr_systemcnstdefault_c normamps=400 emergamps=600
new object=line.157_d3_10227_d3_1 bus1=157_d3_10225_d3_1.1.2.3 bus2=157_d3_10227_d3_1.1.2.3 length=332.129 units=ft linecode=ppp1/0acsr_n4acsr_systemcnstdefault_abc normamps=400 emergamps=600
new object=line.157_d3_10228_d3_1 bus1=157_d3_10227_d3_1.1.2.3 bus2=157_d3_10228_d3_1.1.2.3 length=280.1058 units=ft linecode=ppp1/0acsr_n4acsr_systemcnstdefault_abc normamps=400 emergamps=600
new object=line.157_d3_10229_d3_1 bus1=157_d3_10228_d3_1.1.2.3 bus2=157_d3_10229_d3_1.1.2.3 length=283.7055 units=ft linecode=ppp1/0acsr_n4acsr_systemcnstdefault_abc normamps=400 emergamps=600
new object=line.157_d3_10865_d3_1 bus1=157_d3_10229_d3_1.1.2.3 bus2=157_d3_10865_d3_1.1.2.3 length=188.5132 units=ft linecode=ppp1/0acsr_n4acsr_systemcnstdefault_abc normamps=400 emergamps=600
new object=line.157_d3_24195_d3_1 bus1=157_d3_10229_d3_1.2 bus2=157_d3_24195_d3_1.2 length=25.24275 units=ft linecode=pn4acsr_systemcnstdefault_b normamps=400 emergamps=600
new object=line.157_d3_24196_d3_1 bus1=157_d3_24195_d3_1.2 bus2=157_d3_24196_d3_1.2 length=87.82951 units=ft linecode=pn4acsr_systemcnstdefault_b normamps=400 emergamps=600
new object=line.157_d3_24194_d3_1 bus1=157_d3_24196_d3_1.2 bus2=157_d3_24194_d3_1.2 length=129.4567 units=ft linecode=pn4acsr_systemcnstdefault_b normamps=400 emergamps=600
new object=line.157_d3_24192_d3_1 bus1=157_d3_24194_d3_1.2 bus2=157_d3_24192_d3_1.2 length=123.468 units=ft linecode=pn4acsr_systemcnstdefault_b normamps=400 emergamps=600
new object=line.157_d3_24193_d3_1 bus1=157_d3_24192_d3_1.2 bus2=157_d3_24193_d3_1.2 length=145.0749 units=ft linecode=pn4acsr_systemcnstdefault_b normamps=400 emergamps=600
new object=line.157_d3_24191_d3_1 bus1=157_d3_24193_d3_1.2 bus2=157_d3_24191_d3_1.2 length=117.9478 units=ft linecode=pn4acsr_systemcnstdefault_b normamps=400 emergamps=600
new object=line.157_d3_24189_d3_1 bus1=157_d3_24191_d3_1.2 bus2=157_d3_24189_d3_1.2 length=105.9519 units=ft linecode=pn4acsr_systemcnstdefault_b normamps=400 emergamps=600
new object=line.157_d3_24190_d3_1 bus1=157_d3_24189_d3_1.2 bus2=157_d3_24190_d3_1.2 length=111.3696 units=ft linecode=pn4acsr_systemcnstdefault_b normamps=400 emergamps=600
new object=line.157_d3_10250_d3_1 bus1=157_d3_24190_d3_1.2 bus2=157_d3_10250_d3_1.2 length=111.883 units=ft linecode=pn4acsr_systemcnstdefault_b normamps=400 emergamps=600
new object=line.157_d3_24187_d3_1 bus1=157_d3_10250_d3_1.2 bus2=157_d3_24187_d3_1.2 length=223.9743 units=ft linecode=pn4acsr_systemcnstdefault_b normamps=400 emergamps=600
new object=line.157_d3_24188_d3_1 bus1=157_d3_24187_d3_1.2 bus2=157_d3_24188_d3_1.2 length=233.1521 units=ft linecode=pn4acsr_systemcnstdefault_b normamps=400 emergamps=600
new object=line.157_d3_10530_d3_1 bus1=157_d3_24188_d3_1.2 bus2=157_d3_10530_d3_1.2 length=139.7015 units=ft linecode=pn4acsr_systemcnstdefault_b normamps=400 emergamps=600
new object=line.157_d3_24185_d3_1 bus1=157_d3_10530_d3_1.2 bus2=157_d3_24185_d3_1.2 length=139.4152 units=ft linecode=pn4acsr_systemcnstdefault_b normamps=400 emergamps=600
new object=line.157_d3_24186_d3_1 bus1=157_d3_24185_d3_1.2 bus2=157_d3_24186_d3_1.2 length=141.5293 units=ft linecode=pn4acsr_systemcnstdefault_b normamps=400 emergamps=600
new object=line.157_d3_24184_d3_1 bus1=157_d3_24186_d3_1.2 bus2=157_d3_24184_d3_1.2 length=115.2897 units=ft linecode=pn4acsr_systemcnstdefault_b normamps=400 emergamps=600
new object=line.157_d3_24183_d3_1 bus1=157_d3_24184_d3_1.2 bus2=157_d3_24183_d3_1.2 length=139.0118 units=ft linecode=pn4acsr_systemcnstdefault_b normamps=400 emergamps=600
new object=line.157_d3_24181_d3_1 bus1=157_d3_24183_d3_1.2 bus2=157_d3_24181_d3_1.2 length=162.9933 units=ft linecode=pn4acsr_systemcnstdefault_b normamps=400 emergamps=600
new object=line.157_d3_24182_d3_1 bus1=157_d3_24181_d3_1.2 bus2=157_d3_24182_d3_1.2 length=105.3786 units=ft linecode=pn4acsr_systemcnstdefault_b normamps=400 emergamps=600
new object=line.157_d3_10230_d3_1 bus1=157_d3_10228_d3_1.3 bus2=157_d3_10230_d3_1.3 length=24.5877 units=ft linecode=pn4acsr_systemcnstdefault_c normamps=400 emergamps=600
new object=line.157_d3_10249_d3_1 bus1=157_d3_10230_d3_1.3 bus2=157_d3_10249_d3_1.3 length=182.8268 units=ft linecode=pn4acsr_systemcnstdefault_c normamps=400 emergamps=600
new object=line.157_d3_17055_d3_1 bus1=157_d3_10249_d3_1.3 bus2=157_d3_17055_d3_1.3 length=66.6795 units=ft linecode=pn4acsr_systemcnstdefault_c normamps=400 emergamps=600
new object=line.157_d3_10279_d3_1 bus1=157_d3_10278_d3_1.1.2.3 bus2=157_d3_10279_d3_1.1.2.3 length=603.3819 units=ft linecode=pppn4acsr_systemcnstdefault_abc normamps=400 emergamps=600
new object=line.157_d3_10284_d3_1 bus1=157_d3_10279_d3_1.1.2.3 bus2=157_d3_10284_d3_1.1.2.3 length=618.4038 units=ft linecode=pppn4acsr_systemcnstdefault_abc normamps=400 emergamps=600
new object=line.157_d3_10285_d3_1 bus1=157_d3_10284_d3_1.3 bus2=157_d3_10285_d3_1.3 length=313.5151 units=ft linecode=pn4acsr_systemcnstdefault_c normamps=400 emergamps=600
new object=line.157_d3_10286_d3_1 bus1=157_d3_10285_d3_1.3 bus2=157_d3_10286_d3_1.3 length=272.0676 units=ft linecode=pn4acsr_systemcnstdefault_c normamps=400 emergamps=600
new object=line.157_d3_10287_d3_1 bus1=157_d3_10284_d3_1.1.2.3 bus2=157_d3_10287_d3_1.1.2.3 length=914.0854 units=ft linecode=pppn4acsr_systemcnstdefault_abc normamps=400 emergamps=600
new object=line.157_d3_10288_d3_1 bus1=157_d3_10287_d3_1.2 bus2=157_d3_10288_d3_1.2 length=283.7723 units=ft linecode=pn4acsr_systemcnstdefault_b normamps=400 emergamps=600
new object=line.159_d3_11223_d3_1 bus1=157_d3_10288_d3_1.2 bus2=159_d3_11223_d3_1.2 length=42.6003 units=ft linecode=pn4acsr_systemcnstdefault_b normamps=400 emergamps=600
new object=line.157_d3_10343_d3_1 bus1=157_d3_10287_d3_1.1 bus2=157_d3_10343_d3_1.1 length=206.9185 units=ft linecode=pn4acsr_systemcnstdefault_a normamps=400 emergamps=600
new object=line.157_d3_10344_d3_1 bus1=157_d3_10343_d3_1.1 bus2=157_d3_10344_d3_1.1 length=457.282 units=ft linecode=pn4acsr_systemcnstdefault_a normamps=400 emergamps=600
new object=line.157_d3_10342_d3_1 bus1=157_d3_10344_d3_1.1 bus2=157_d3_10342_d3_1.1 length=356.0259 units=ft linecode=pn4acsr_systemcnstdefault_a normamps=400 emergamps=600
new object=line.157_d3_10306_d3_1 bus1=157_d3_10342_d3_1.1 bus2=157_d3_10306_d3_1.1 length=308.9179 units=ft linecode=pn4acsr_systemcnstdefault_a normamps=400 emergamps=600
new object=line.157_d3_10305_d3_1 bus1=157_d3_10306_d3_1.1 bus2=157_d3_10305_d3_1.1 length=399.4698 units=ft linecode=pn4acsr_systemcnstdefault_a normamps=400 emergamps=600
new object=line.157_d3_11921_d3_1 bus1=157_d3_10305_d3_1.1 bus2=157_d3_11921_d3_1.1 length=479.5577 units=ft linecode=pn4acsr_systemcnstdefault_a normamps=400 emergamps=600
new object=line.157_d3_11922_d3_1 bus1=157_d3_11921_d3_1.1 bus2=157_d3_11922_d3_1.1 length=387.0491 units=ft linecode=pn4acsr_systemcnstdefault_a normamps=400 emergamps=600
new object=line.157_d3_32234_d3_1 bus1=157_d3_11921_d3_1.1 bus2=157_d3_32234_d3_1.1 length=98.59222 units=ft linecode=pn4acsr_systemcnstdefault_a normamps=400 emergamps=600
new object=line.157_d3_32235_d3_1 bus1=157_d3_32234_d3_1.1 bus2=157_d3_32235_d3_1.1 length=238.8669 units=ft linecode=pn4acsr_systemcnstdefault_a normamps=400 emergamps=600
new object=line.157_d3_36711_d3_1 bus1=157_d3_10287_d3_1.1.2.3 bus2=157_d3_36711_d3_1.1.2.3 length=528.2054 units=ft linecode=pppn4acsr_systemcnstdefault_abc normamps=400 emergamps=600
new object=line.157_d3_36714_d3_1 bus1=157_d3_36711_d3_1.1.2.3 bus2=157_d3_36714_d3_1.1.2.3 length=2104.04 units=ft linecode=pppn4acsr_systemcnstdefault_abc normamps=400 emergamps=600
new object=line.157_d3_10334_d3_1 bus1=157_d3_36714_d3_1.1.2.3 bus2=157_d3_10334_d3_1.1.2.3 length=47.01423 units=ft linecode=pppn4acsr_systemcnstdefault_abc normamps=400 emergamps=600
new object=line.157_d3_10335_d3_1 bus1=157_d3_10334_d3_1.1.2.3 bus2=157_d3_10335_d3_1.1.2.3 length=3378.765 units=ft linecode=pppn4acsr_systemcnstdefault_abc normamps=400 emergamps=600
new object=line.157_d3_10290_d3_1 bus1=157_d3_10335_d3_1.2 bus2=157_d3_10290_d3_1.2 length=200.3019 units=ft linecode=pn4acsr_systemcnstdefault_b normamps=400 emergamps=600
new object=line.157_d3_10291_d3_1 bus1=157_d3_10335_d3_1.1.2.3 bus2=157_d3_10291_d3_1.1.2.3 length=480.9725 units=ft linecode=pppn4acsr_systemcnstdefault_abc normamps=400 emergamps=600
new object=line.157_d3_10292_d3_1 bus1=151_d3_633.1.2.3 bus2=157_d3_10292_d3_1.1.2.3 length=94.54205 units=ft linecode=pppn4acsr_systemcnstdefault_abc normamps=400 emergamps=600
new object=line.157_d3_10301_d3_1 bus1=157_d3_10292_d3_1.1.2.3 bus2=157_d3_10301_d3_1.1.2.3 length=1247.883 units=ft linecode=pppn4acsr_systemcnstdefault_abc normamps=400 emergamps=600
new object=line.157_d3_10302_d3_1 bus1=157_d3_10301_d3_1.1.2.3 bus2=157_d3_10302_d3_1.1.2.3 length=1906.836 units=ft linecode=pppn4acsr_systemcnstdefault_abc normamps=400 emergamps=600
new object=line.157_d3_10303_d3_1 bus1=157_d3_10302_d3_1.1.2.3 bus2=157_d3_10303_d3_1.1.2.3 length=791.1171 units=ft linecode=pppn4acsr_systemcnstdefault_abc normamps=400 emergamps=600
new object=line.157_d3_10304_d3_1 bus1=157_d3_10303_d3_1.1.2.3 bus2=157_d3_10304_d3_1.1.2.3 length=701.1796 units=ft linecode=pppn4acsr_systemcnstdefault_abc normamps=400 emergamps=600
new object=line.157_d3_10312_d3_1 bus1=157_d3_10304_d3_1.1 bus2=157_d3_10312_d3_1.1 length=277.0957 units=ft linecode=pn4acsr_systemcnstdefault_a normamps=400 emergamps=600
new object=line.157_d3_24495_d3_1 bus1=157_d3_10304_d3_1.1.2.3 bus2=157_d3_24495_d3_1.1.2.3 length=241.505 units=ft linecode=pppn4acsr_systemcnstdefault_abc normamps=400 emergamps=600
new object=line.157_d3_24494_d3_1 bus1=157_d3_24495_d3_1.1.2.3 bus2=157_d3_24494_d3_1.1.2.3 length=1264.689 units=ft linecode=pppn4acsr_systemcnstdefault_abc normamps=400 emergamps=600
new object=line.157_d3_24496_d3_1 bus1=157_d3_24494_d3_1.1.2.3 bus2=157_d3_24496_d3_1.1.2.3 length=303.3851 units=ft linecode=pppn4acsr_systemcnstdefault_abc normamps=400 emergamps=600
new object=line.160_d3_36068_d3_1 bus1=157_d3_24496_d3_1.1.2.3 bus2=160_d3_36068_d3_1.1.2.3 length=26.85542 units=ft linecode=ppp350al_systemcnstdefault_abc normamps=400 emergamps=600
new object=line.157_d3_25903_d3_1 bus1=157_d3_24495_d3_1.2 bus2=157_d3_25903_d3_1.2 length=419.1885 units=ft linecode=pn4acsr_systemcnstdefault_b normamps=400 emergamps=600
new object=line.157_d3_25904_d3_1 bus1=154_d3_312.2 bus2=157_d3_25904_d3_1.2 length=10625.97 units=ft linecode=pn4acsr_systemcnstdefault_b normamps=400 emergamps=600
new object=line.157_d3_10321_d3_2 bus1=157_d3_25904_d3_1.2 bus2=157_d3_10321_d3_2.2 length=1393.392 units=ft linecode=pn4acsr_systemcnstdefault_b normamps=400 emergamps=600
new object=line.157_d3_10321_d3_3 bus1=157_d3_10321_d3_2.2 bus2=157_d3_10321_d3_3.2 length=3948.616 units=ft linecode=pn4acsr_systemcnstdefault_b normamps=400 emergamps=600
new object=line.157_d3_10322_d3_1 bus1=157_d3_10321_d3_3.2 bus2=157_d3_10322_d3_1.2 length=15982.51 units=ft linecode=pn4acsr_systemcnstdefault_b normamps=400 emergamps=600
new object=line.157_d3_10270_d3_1 bus1=157_d3_10322_d3_1.2 bus2=157_d3_10270_d3_1.2 length=4069.895 units=ft linecode=pn4acsr_systemcnstdefault_b normamps=400 emergamps=600
new object=line.157_d3_9987_d3_1 bus1=157_d3_10270_d3_1.2 bus2=157_d3_9987_d3_1.2 length=644.1982 units=ft linecode=pn4acsr_systemcnstdefault_b normamps=400 emergamps=600
new object=line.157_d3_9988_d3_1 bus1=157_d3_9987_d3_1.2 bus2=157_d3_9988_d3_1.2 length=484.8285 units=ft linecode=pn4acsr_systemcnstdefault_b normamps=400 emergamps=600
new object=line.157_d3_10315_d3_1 bus1=157_d3_10322_d3_1.2 bus2=157_d3_10315_d3_1.2 length=1482.91 units=ft linecode=pn4acsr_systemcnstdefault_b normamps=400 emergamps=600
new object=line.157_d3_10316_d3_1 bus1=157_d3_10322_d3_1.2 bus2=157_d3_10316_d3_1.2 length=793.7806 units=ft linecode=pn4acsr_systemcnstdefault_b normamps=400 emergamps=600
new object=line.157_d3_17129_d3_1 bus1=157_d3_25904_d3_1.2 bus2=157_d3_17129_d3_1.2 length=0.7786146 units=ft linecode=pn4acsr_systemcnstdefault_b normamps=400 emergamps=600
new object=line.157_d3_17130_d3_1 bus1=154_d3_541.2 bus2=157_d3_17130_d3_1.2 length=1295.404 units=ft linecode=pn4acsr_systemcnstdefault_b normamps=400 emergamps=600
new object=line.157_d3_10171_d3_1 bus1=157_d3_17130_d3_1.2 bus2=157_d3_10171_d3_1.2 length=63.2595 units=ft linecode=pn4acsr_systemcnstdefault_b normamps=400 emergamps=600
new object=line.157_d3_10172_d3_1 bus1=157_d3_10171_d3_1.2 bus2=157_d3_10172_d3_1.2 length=4659.619 units=ft linecode=pn4acsr_systemcnstdefault_b normamps=400 emergamps=600
new object=line.157_d3_10320_d3_1 bus1=157_d3_10172_d3_1.2 bus2=157_d3_10320_d3_1.2 length=8366.805 units=ft linecode=pn4acsr_systemcnstdefault_b normamps=400 emergamps=600
new object=line.157_d3_10319_d3_1 bus1=157_d3_10320_d3_1.2 bus2=157_d3_10319_d3_1.2 length=7005.871 units=ft linecode=pn4acsr_systemcnstdefault_b normamps=400 emergamps=600
new object=line.157_d3_10318_d3_2 bus1=157_d3_10319_d3_1.2 bus2=157_d3_10318_d3_2.2 length=234.9257 units=ft linecode=1/0acsr_n4acsr_systemcnstdefault_b normamps=400 emergamps=600
new object=line.157_d3_10314_d3_3 bus1=157_d3_10318_d3_2.2 bus2=157_d3_10314_d3_3.2 length=65.28389 units=ft linecode=1/0acsr_n4acsr_systemcnstdefault_b normamps=400 emergamps=600
new object=line.157_d3_29478_d3_1 bus1=157_d3_10314_d3_3.2 bus2=157_d3_29478_d3_1.2 length=2288.963 units=ft linecode=pn4acsr_systemcnstdefault_b normamps=400 emergamps=600
new object=line.157_d3_29479_d3_1 bus1=157_d3_29478_d3_1.2 bus2=157_d3_29479_d3_1.2 length=2137.299 units=ft linecode=pn4acsr_systemcnstdefault_b normamps=400 emergamps=600
new object=line.157_d3_28436_d3_1 bus1=157_d3_29479_d3_1.2 bus2=157_d3_28436_d3_1.2 length=1423.598 units=ft linecode=pn4acsr_systemcnstdefault_b normamps=400 emergamps=600
new object=line.157_d3_10317_d3_2 bus1=157_d3_28436_d3_1.2 bus2=157_d3_10317_d3_2.2 length=4548.679 units=ft linecode=pn4acsr_systemcnstdefault_b normamps=400 emergamps=600
new object=line.157_d3_29480_d3_3 bus1=157_d3_10317_d3_2.2 bus2=157_d3_29480_d3_3.2 length=815.434 units=ft linecode=pn4acsr_systemcnstdefault_b normamps=400 emergamps=600
new object=line.157_d3_29481_d3_2 bus1=157_d3_29480_d3_3.2 bus2=157_d3_29481_d3_2.2 length=7219.33 units=ft linecode=pn4acsr_systemcnstdefault_b normamps=400 emergamps=600
new object=line.157_d3_29711_d3_3 bus1=157_d3_29481_d3_2.2 bus2=157_d3_29711_d3_3.2 length=2178.611 units=ft linecode=pn4acsr_systemcnstdefault_b normamps=400 emergamps=600
new object=line.157_d3_32604_d3_1 bus1=157_d3_29479_d3_1.2 bus2=157_d3_32604_d3_1.2 length=4277.27 units=ft linecode=pn4acsr_systemcnstdefault_b normamps=400 emergamps=600
new object=line.157_d3_10313_d3_1 bus1=157_d3_17130_d3_1.2 bus2=157_d3_10313_d3_1.2 length=307.6541 units=ft linecode=pn4acsr_systemcnstdefault_b normamps=400 emergamps=600
new object=line.157_d3_10293_d3_1 bus1=157_d3_10302_d3_1.3 bus2=157_d3_10293_d3_1.3 length=496.6823 units=ft linecode=pn4acsr_systemcnstdefault_c normamps=400 emergamps=600
new object=line.157_d3_10294_d3_1 bus1=154_d3_102.3 bus2=157_d3_10294_d3_1.3 length=269.6536 units=ft linecode=pn4acsr_systemcnstdefault_c normamps=400 emergamps=600
new object=line.157_d3_10295_d3_1 bus1=157_d3_10294_d3_1.3 bus2=157_d3_10295_d3_1.3 length=283.797 units=ft linecode=pn4acsr_systemcnstdefault_c normamps=400 emergamps=600
new object=line.157_d3_10296_d3_1 bus1=157_d3_10295_d3_1.3 bus2=157_d3_10296_d3_1.3 length=967.3787 units=ft linecode=pn4acsr_systemcnstdefault_c normamps=400 emergamps=600
new object=line.157_d3_10176_d3_1 bus1=157_d3_10296_d3_1.3 bus2=157_d3_10176_d3_1.3 length=956.4913 units=ft linecode=pn4acsr_systemcnstdefault_c normamps=400 emergamps=600
new object=line.157_d3_10177_d3_1 bus1=157_d3_10176_d3_1.3 bus2=157_d3_10177_d3_1.3 length=1109.618 units=ft linecode=pn4acsr_systemcnstdefault_c normamps=400 emergamps=600
new object=line.157_d3_10174_d3_1 bus1=157_d3_10177_d3_1.3 bus2=157_d3_10174_d3_1.3 length=305.2825 units=ft linecode=pn4acsr_systemcnstdefault_c normamps=400 emergamps=600
new object=line.157_d3_10175_d3_1 bus1=157_d3_10174_d3_1.3 bus2=157_d3_10175_d3_1.3 length=402.2127 units=ft linecode=pn4acsr_systemcnstdefault_c normamps=400 emergamps=600
new object=line.157_d3_10299_d3_1 bus1=157_d3_10175_d3_1.3 bus2=157_d3_10299_d3_1.3 length=363.208 units=ft linecode=pn4acsr_systemcnstdefault_c normamps=400 emergamps=600
new object=line.157_d3_10300_d3_1 bus1=157_d3_10175_d3_1.3 bus2=157_d3_10300_d3_1.3 length=1163.839 units=ft linecode=pn4acsr_systemcnstdefault_c normamps=400 emergamps=600
new object=line.157_d3_10298_d3_1 bus1=157_d3_10177_d3_1.3 bus2=157_d3_10298_d3_1.3 length=45.87469 units=ft linecode=pn4acsr_systemcnstdefault_c normamps=400 emergamps=600
new object=line.157_d3_10407_d3_1 bus1=157_d3_32561_d3_1.2 bus2=157_d3_10407_d3_1.2 length=286.9747 units=ft linecode=pn4acsr_systemcnstdefault_b normamps=400 emergamps=600
new object=line.157_d3_32591_d3_1 bus1=157_d3_10407_d3_1.2 bus2=157_d3_32591_d3_1.2 length=121.7558 units=ft linecode=pn4acsr_systemcnstdefault_b normamps=400 emergamps=600
new object=line.157_d3_32592_d3_1 bus1=157_d3_32591_d3_1.2 bus2=157_d3_32592_d3_1.2 length=94.18684 units=ft linecode=pn4acsr_systemcnstdefault_b normamps=400 emergamps=600
new object=line.157_d3_32593_d3_1 bus1=157_d3_32592_d3_1.2 bus2=157_d3_32593_d3_1.2 length=132.9242 units=ft linecode=pn4acsr_systemcnstdefault_b normamps=400 emergamps=600
new object=line.157_d3_32594_d3_1 bus1=157_d3_32593_d3_1.2 bus2=157_d3_32594_d3_1.2 length=148.4373 units=ft linecode=pn4acsr_systemcnstdefault_b normamps=400 emergamps=600
new object=line.157_d3_32595_d3_1 bus1=157_d3_32594_d3_1.2 bus2=157_d3_32595_d3_1.2 length=196.869 units=ft linecode=pn4acsr_systemcnstdefault_b normamps=400 emergamps=600
new object=line.157_d3_32596_d3_1 bus1=157_d3_32595_d3_1.2 bus2=157_d3_32596_d3_1.2 length=126.8896 units=ft linecode=pn4acsr_systemcnstdefault_b normamps=400 emergamps=600
new object=line.157_d3_32597_d3_1 bus1=157_d3_32596_d3_1.2 bus2=157_d3_32597_d3_1.2 length=162.9836 units=ft linecode=pn4acsr_systemcnstdefault_b normamps=400 emergamps=600
new object=line.157_d3_32598_d3_1 bus1=157_d3_32597_d3_1.2 bus2=157_d3_32598_d3_1.2 length=150.3318 units=ft linecode=pn4acsr_systemcnstdefault_b normamps=400 emergamps=600
new object=line.157_d3_34171_d3_1 bus1=157_d3_32598_d3_1.2 bus2=157_d3_34171_d3_1.2 length=239.9881 units=ft linecode=pn4acsr_systemcnstdefault_b normamps=400 emergamps=600
new object=line.157_d3_34172_d3_1 bus1=157_d3_34171_d3_1.2 bus2=157_d3_34172_d3_1.2 length=100.9781 units=ft linecode=pn4acsr_systemcnstdefault_b normamps=400 emergamps=600
new object=line.159_d3_34551_d3_1 bus1=157_d3_34172_d3_1.2 bus2=159_d3_34551_d3_1.2 length=0.0286111 units=ft linecode=pn4acsr_systemcnstdefault_b normamps=400 emergamps=600
new object=line.157_d3_34172_d3_2 bus1=157_d3_34172_d3_1.2 bus2=157_d3_34172_d3_2.2 length=94.6872 units=ft linecode=pn4acsr_systemcnstdefault_b normamps=400 emergamps=600
new object=line.157_d3_9903_d3_1 bus1=157_d3_34172_d3_2.2 bus2=157_d3_9903_d3_1.2 length=99.26651 units=ft linecode=pn4acsr_systemcnstdefault_b normamps=400 emergamps=600
new object=line.157_d3_32554_d3_1 bus1=157_d3_37137_d3_1.1.2.3 bus2=157_d3_32554_d3_1.1.2.3 length=161.3312 units=ft linecode=pppn4/0acsr_systemcnstdefault_abc normamps=400 emergamps=600
new object=line.157_d3_32555_d3_1 bus1=157_d3_32554_d3_1.1.2.3 bus2=157_d3_32555_d3_1.1.2.3 length=222.5855 units=ft linecode=pppn4/0acsr_systemcnstdefault_abc normamps=400 emergamps=600
new object=line.157_d3_9930_d3_1 bus1=157_d3_32555_d3_1.1.2.3 bus2=157_d3_9930_d3_1.1.2.3 length=117.3817 units=ft linecode=pppn4/0acsr_systemcnstdefault_abc normamps=400 emergamps=600
new object=line.157_d3_10408_d3_1 bus1=157_d3_32555_d3_1.2 bus2=157_d3_10408_d3_1.2 length=77.62919 units=ft linecode=pn2acsr_systemcnstdefault_b normamps=400 emergamps=600
new object=line.157_d3_10408_d3_2 bus1=157_d3_10408_d3_1.2 bus2=157_d3_10408_d3_2.2 length=131.1331 units=ft linecode=pn2acsr_systemcnstdefault_b normamps=400 emergamps=600
new object=line.157_d3_10409_d3_1 bus1=157_d3_10408_d3_2.2 bus2=157_d3_10409_d3_1.2 length=102.505 units=ft linecode=pn2acsr_systemcnstdefault_b normamps=400 emergamps=600
new object=line.157_d3_10409_d3_2 bus1=157_d3_10409_d3_1.2 bus2=157_d3_10409_d3_2.2 length=168.6526 units=ft linecode=pn2acsr_systemcnstdefault_b normamps=400 emergamps=600
new object=line.157_d3_37130_d3_1 bus1=157_d3_32555_d3_1.1.2.3 bus2=157_d3_37130_d3_1.1.2.3 length=169.6366 units=ft linecode=pppn4/0acsr_systemcnstdefault_abc normamps=400 emergamps=600
...

!redirect load.dss
new object=load.c11051759a_bph bus1=157_d3_9897_d3_1.2 kv=7.1989999999999998 phases=1 vmaxpu=2.00000 vminpu=0.72000 conn=wye kw=8.2133302700000002 kvar=2.5260167099999999 numcust=0 model=8 zipv=(0.20000000000000001,0.10000000000000001,0.69999999999999996,0.20000000000000001,0.10000000000000001,0.69999999999999996,0)
new object=load.c11051759a_aph bus1=157_d3_9897_d3_1.1 kv=7.1989999999999998 phases=1 vmaxpu=2.00000 vminpu=0.72000 conn=wye kw=8.2133302700000002 kvar=2.8609437899999999 numcust=0 model=8 zipv=(0.20000000000000001,0.10000000000000001,0.69999999999999996,0.20000000000000001,0.10000000000000001,0.69999999999999996,0)
new object=load.c11051759a_cph bus1=157_d3_9897_d3_1.3 kv=7.1989999999999998 phases=1 vmaxpu=2.00000 vminpu=0.72000 conn=wye kw=8.2133312200000006 kvar=0.92390788000000001 numcust=0 model=8 zipv=(0.20000000000000001,0.10000000000000001,0.69999999999999996,0.20000000000000001,0.10000000000000001,0.69999999999999996,0)
new object=load.c11082512a_bph bus1=157_d3_10378_d3_1.2 kv=7.1989999999999998 phases=1 vmaxpu=2.00000 vminpu=0.72000 conn=wye kw=0.70381777999999995 kvar=0.34087455 numcust=0 model=8 zipv=(0.20000000000000001,0.10000000000000001,0.69999999999999996,0.20000000000000001,0.10000000000000001,0.69999999999999996,0)
new object=load.c11082212y_bph bus1=157_d3_10377_d3_1.2 kv=7.1989999999999998 phases=1 vmaxpu=2.00000 vminpu=0.72000 conn=wye kw=0.33783266000000001 kvar=0.16361985000000001 numcust=0 model=8 zipv=(0.20000000000000001,0.10000000000000001,0.69999999999999996,0.20000000000000001,0.10000000000000001,0.69999999999999996,0)
new object=load.c11078014y_aph bus1=157_d3_9900_d3_1.1 kv=7.1989999999999998 phases=1 vmaxpu=2.00000 vminpu=0.72000 conn=wye kw=0.046457499999999999 kvar=0.022500389999999999 numcust=0 model=8 zipv=(0.20000000000000001,0.10000000000000001,0.69999999999999996,0.20000000000000001,0.10000000000000001,0.69999999999999996,0)
new object=load.c11081330e_bph bus1=157_d3_9901_d3_1.2 kv=7.1989999999999998 phases=1 vmaxpu=2.00000 vminpu=0.72000 conn=wye kw=0.1249277 kvar=0.060505259999999998 numcust=0 model=8 zipv=(0.20000000000000001,0.10000000000000001,0.69999999999999996,0.20000000000000001,0.10000000000000001,0.69999999999999996,0)
new object=load.c11077934f bus1=157_d3_9905_d3_1.1.2.3 kv=12.46903 phases=3 vmaxpu=2.00000 vminpu=0.72000 conn=wye kw=21.683395390000001 kvar=10.50174904 numcust=0 model=8 zipv=(0.20000000000000001,0.10000000000000001,0.69999999999999996,0.20000000000000001,0.10000000000000001,0.69999999999999996,0)
new object=load.c11078628y_aph bus1=157_d3_10517_d3_1.1 kv=7.1989999999999998 phases=1 vmaxpu=2.00000 vminpu=0.72000 conn=wye kw=0.984433 kvar=0.34290689000000002 numcust=0 model=8 zipv=(0.20000000000000001,0.10000000000000001,0.69999999999999996,0.20000000000000001,0.10000000000000001,0.69999999999999996,0)
new object=load.c11078628y_bph bus1=157_d3_10517_d3_1.2 kv=7.1989999999999998 phases=1 vmaxpu=2.00000 vminpu=0.72000 conn=wye kw=0.984433 kvar=0.30276322 numcust=0 model=8 zipv=(0.20000000000000001,0.10000000000000001,0.69999999999999996,0.20000000000000001,0.10000000000000001,0.69999999999999996,0)
new object=load.c11078628y_cph bus1=157_d3_10517_d3_1.3 kv=7.1989999999999998 phases=1 vmaxpu=2.00000 vminpu=0.72000 conn=wye kw=0.984433 kvar=0.11073769999999999 numcust=0 model=8 zipv=(0.20000000000000001,0.10000000000000001,0.69999999999999996,0.20000000000000001,0.10000000000000001,0.69999999999999996,0)
new object=load.c11078627r_aph bus1=157_d3_10381_d3_1.1 kv=7.1989999999999998 phases=1 vmaxpu=2.00000 vminpu=0.72000 conn=wye kw=10.709999079999999 kvar=3.73060656 numcust=0 model=8 zipv=(0.20000000000000001,0.10000000000000001,0.69999999999999996,0.20000000000000001,0.10000000000000001,0.69999999999999996,0)
new object=load.c11078624s_aph bus1=157_d3_10380_d3_1.1 kv=7.1989999999999998 phases=1 vmaxpu=2.00000 vminpu=0.72000 conn=wye kw=7.9981999400000001 kvar=2.7860076399999998 numcust=0 model=8 zipv=(0.20000000000000001,0.10000000000000001,0.69999999999999996,0.20000000000000001,0.10000000000000001,0.69999999999999996,0)
new object=load.b11321787j_aph bus1=157_d3_9910_d3_1.1 kv=7.1989999999999998 phases=1 vmaxpu=2.00000 vminpu=0.72000 conn=wye kw=2.1234946300000002 kvar=1.0284555 numcust=0 model=8 zipv=(0.20000000000000001,0.10000000000000001,0.69999999999999996,0.20000000000000001,0.10000000000000001,0.69999999999999996,0)
new object=load.b11321787p_aph bus1=157_d3_9910_d3_1.1 kv=7.1989999999999998 phases=1 vmaxpu=2.00000 vminpu=0.72000 conn=wye kw=1.3671 kvar=0.47620103000000003 numcust=0 model=8 zipv=(0.20000000000000001,0.10000000000000001,0.69999999999999996,0.20000000000000001,0.10000000000000001,0.69999999999999996,0)
new object=load.b11317690h_cph bus1=157_d3_9913_d3_1.3 kv=7.1989999999999998 phases=1 vmaxpu=2.00000 vminpu=0.72000 conn=wye kw=1.24390018 kvar=0.13992483999999999 numcust=0 model=8 zipv=(0.20000000000000001,0.10000000000000001,0.69999999999999996,0.20000000000000001,0.10000000000000001,0.69999999999999996,0)
new object=load.c11066914y_cph bus1=157_d3_9914_d3_1.3 kv=7.1989999999999998 phases=1 vmaxpu=2.00000 vminpu=0.72000 conn=wye kw=6.6717000000000004 kvar=0.75049155999999995 numcust=0 model=8 zipv=(0.20000000000000001,0.10000000000000001,0.69999999999999996,0.20000000000000001,0.10000000000000001,0.69999999999999996,0)
new object=load.c11066914j_cph bus1=157_d3_9914_d3_1.3 kv=7.1989999999999998 phases=1 vmaxpu=2.00000 vminpu=0.72000 conn=wye kw=31.35999107 kvar=3.5276479699999999 numcust=0 model=8 zipv=(0.20000000000000001,0.10000000000000001,0.69999999999999996,0.20000000000000001,0.10000000000000001,0.69999999999999996,0)
new object=load.c11066914h_cph bus1=157_d3_9914_d3_1.3 kv=7.1989999999999998 phases=1 vmaxpu=2.00000 vminpu=0.72000 conn=wye kw=5.3186001799999998 kvar=0.59828298999999996 numcust=0 model=8 zipv=(0.20000000000000001,0.10000000000000001,0.69999999999999996,0.20000000000000001,0.10000000000000001,0.69999999999999996,0)
new object=load.c11066914p_cph bus1=157_d3_9914_d3_1.3 kv=7.1989999999999998 phases=1 vmaxpu=2.00000 vminpu=0.72000 conn=wye kw=0.63959277000000003 kvar=0.30976893999999999 numcust=0 model=8 zipv=(0.20000000000000001,0.10000000000000001,0.69999999999999996,0.20000000000000001,0.10000000000000001,0.69999999999999996,0)
new object=load.c11066914n_cph bus1=157_d3_9914_d3_1.3 kv=7.1989999999999998 phases=1 vmaxpu=2.00000 vminpu=0.72000 conn=wye kw=2.3195106999999999 kvar=1.1233904400000001 numcust=0 model=8 zipv=(0.20000000000000001,0.10000000000000001,0.69999999999999996,0.20000000000000001,0.10000000000000001,0.69999999999999996,0)
new object=load.b11317088m_cph bus1=157_d3_9916_d3_1.3 kv=7.1989999999999998 phases=1 vmaxpu=2.00000 vminpu=0.72000 conn=wye kw=0.19110002000000001 kvar=0.021496609999999999 numcust=0 model=8 zipv=(0.20000000000000001,0.10000000000000001,0.69999999999999996,0.20000000000000001,0.10000000000000001,0.69999999999999996,0)
new object=load.b11318362d_aph bus1=157_d3_10208_d3_1.1 kv=7.1989999999999998 phases=1 vmaxpu=2.00000 vminpu=0.72000 conn=wye kw=2.15253067 kvar=1.04251826 numcust=0 model=8 zipv=(0.20000000000000001,0.10000000000000001,0.69999999999999996,0.20000000000000001,0.10000000000000001,0.69999999999999996,0)
new object=load.b11318362f_aph bus1=157_d3_10208_d3_1.1 kv=7.1989999999999998 phases=1 vmaxpu=2.00000 vminpu=0.72000 conn=wye kw=0.052264680000000001 kvar=0.025312939999999999 numcust=0 model=8 zipv=(0.20000000000000001,0.10000000000000001,0.69999999999999996,0.20000000000000001,0.10000000000000001,0.69999999999999996,0)
new object=load.b11317767w_aph bus1=157_d3_10017_d3_1.1 kv=7.1989999999999998 phases=1 vmaxpu=2.00000 vminpu=0.72000 conn=wye kw=0.65660012000000001 kvar=0.22871308000000001 numcust=0 model=8 zipv=(0.20000000000000001,0.10000000000000001,0.69999999999999996,0.20000000000000001,0.10000000000000001,0.69999999999999996,0)
new object=load.b11317648d_cph bus1=157_d3_10213_d3_1.3 kv=7.1989999999999998 phases=1 vmaxpu=2.00000 vminpu=0.72000 conn=wye kw=6.6444010699999998 kvar=0.74742067000000001 numcust=0 model=8 zipv=(0.20000000000000001,0.10000000000000001,0.69999999999999996,0.20000000000000001,0.10000000000000001,0.69999999999999996,0)
new object=load.b11317548k_aph bus1=157_d3_10212_d3_1.1 kv=7.1989999999999998 phases=1 vmaxpu=2.00000 vminpu=0.72000 conn=wye kw=12.25 kvar=4.2670345300000001 numcust=0 model=8 zipv=(0.20000000000000001,0.10000000000000001,0.69999999999999996,0.20000000000000001,0.10000000000000001,0.69999999999999996,0)
new object=load.b11317548x_aph bus1=157_d3_10212_d3_1.1 kv=7.1989999999999998 phases=1 vmaxpu=2.00000 vminpu=0.72000 conn=wye kw=0.47231790000000001 kvar=0.22875403 numcust=0 model=8 zipv=(0.20000000000000001,0.10000000000000001,0.69999999999999996,0.20000000000000001,0.10000000000000001,0.69999999999999996,0)
new object=load.b11317153f_aph bus1=158_d3_2270_d3_4.1 kv=7.1989999999999998 phases=1 vmaxpu=2.00000 vminpu=0.72000 conn=wye kw=2.9866666799999999 kvar=1.0403436399999999 numcust=0 model=8 zipv=(0.20000000000000001,0.10000000000000001,0.69999999999999996,0.20000000000000001,0.10000000000000001,0.69999999999999996,0)
new object=load.b11317153f_bph bus1=158_d3_2270_d3_4.2 kv=7.1989999999999998 phases=1 vmaxpu=2.00000 vminpu=0.72000 conn=wye kw=2.9866666799999999 kvar=0.91855191999999997 numcust=0 model=8 zipv=(0.20000000000000001,0.10000000000000001,0.69999999999999996,0.20000000000000001,0.10000000000000001,0.69999999999999996,0)
new object=load.b11317153f_cph bus1=158_d3_2270_d3_4.3 kv=7.1989999999999998 phases=1 vmaxpu=2.00000 vminpu=0.72000 conn=wye kw=2.9866666799999999 kvar=0.33596656000000003 numcust=0 model=8 zipv=(0.20000000000000001,0.10000000000000001,0.69999999999999996,0.20000000000000001,0.10000000000000001,0.69999999999999996,0)
new object=load.b11317153h_aph bus1=158_d3_2270_d3_4.1 kv=7.1989999999999998 phases=1 vmaxpu=2.00000 vminpu=0.72000 conn=wye kw=3.0407998599999999 kvar=1.05919981 numcust=0 model=8 zipv=(0.20000000000000001,0.10000000000000001,0.69999999999999996,0.20000000000000001,0.10000000000000001,0.69999999999999996,0)
new object=load.b11317153h_bph bus1=158_d3_2270_d3_4.2 kv=7.1989999999999998 phases=1 vmaxpu=2.00000 vminpu=0.72000 conn=wye kw=3.0407998599999999 kvar=0.93520057000000001 numcust=0 model=8 zipv=(0.20000000000000001,0.10000000000000001,0.69999999999999996,0.20000000000000001,0.10000000000000001,0.69999999999999996,0)
new object=load.b11317153h_cph bus1=158_d3_2270_d3_4.3 kv=7.1989999999999998 phases=1 vmaxpu=2.00000 vminpu=0.72000 conn=wye kw=3.0407998599999999 kvar=0.34205595 numcust=0 model=8 zipv=(0.20000000000000001,0.10000000000000001,0.69999999999999996,0.20000000000000001,0.10000000000000001,0.69999999999999996,0)
new object=load.b11317153j_aph bus1=158_d3_2270_d3_4.1 kv=7.1989999999999998 phases=1 vmaxpu=2.00000 vminpu=0.72000 conn=wye kw=2.21433306 kvar=0.77131718000000005 numcust=0 model=8 zipv=(0.20000000000000001,0.10000000000000001,0.69999999999999996,0.20000000000000001,0.10000000000000001,0.69999999999999996,0)
new object=load.b11317153j_bph bus1=158_d3_2270_d3_4.2 kv=7.1989999999999998 phases=1 vmaxpu=2.00000 vminpu=0.72000 conn=wye kw=2.2143328200000001 kvar=0.68101995999999998 numcust=0 model=8 zipv=(0.20000000000000001,0.10000000000000001,0.69999999999999996,0.20000000000000001,0.10000000000000001,0.69999999999999996,0)
...