data/wto_Power_seq_kVA.txt

SYMMETRICAL COMPONENT POWERS BY CIRCUIT ELEMENT (first 3 phases)                                     Excess Power

Element                             Term    P1(kW)   Q1(kvar)       P2         Q2      P0      Q0       P_Norm      Q_Norm     P_Emerg    Q_Emerg

"Vsource.SOURCE"                     1   -10595.4   -56405.1        0.0        0.0     0.0    -0.0
"Vsource.SOURCE"                     2        0.0        0.0        0.0       -0.0     0.0     0.0
"Line.157_D3_10522_D3_4"             1     5888.6     6295.9        0.0        0.0     0.0     0.0     5215.1     5575.8     4878.4     5215.8
"Line.157_D3_10522_D3_4"             2    -4509.4    -4966.8       -0.0       -0.0    -0.0    -0.0
"Line.157_D3_66760_D3_3"             1     6398.5     6731.5       -0.0       -0.0    -0.0    -0.0     5668.7     5963.7     5303.7     5579.8
"Line.157_D3_66760_D3_3"             2    -6377.1    -6700.2        0.0        0.0     0.0     0.0
"Line.OH164054"                      1    10578.7    56404.6       -0.0       -0.0    -0.0    -0.0     4507.4    24032.9     1471.7     7847.0
"Line.OH164054"                      2   -10577.7   -56403.6        0.0        0.0     0.0    -0.0
"Line.157_D3_9925_D3_1"              1        0.1        0.0       -0.0        0.0     0.0     0.0        0.0        0.0        0.0        0.0
"Line.157_D3_9925_D3_1"              2       -0.1       -0.0        0.0       -0.0    -0.0    -0.0
"Line.157_D3_9897_D3_1"              1     2294.7     2832.8        0.0        0.0     0.0     0.0     2032.2     2508.8     1901.0     2346.8
"Line.157_D3_9897_D3_1"              2     5132.5       -1.0        0.0       -0.0    -0.0    -0.0
"Line.157_D3_25304_D3_1"             1        0.1        0.0       -0.0        0.0     0.0     0.0        0.0        0.0        0.0        0.0
"Line.157_D3_25304_D3_1"             2       -0.1       -0.0        0.0       -0.0    -0.0    -0.0
"Line.157_D3_26020_D3_7"             1     7760.3     7148.5       -0.0       -0.0    -0.0    -0.0     6955.6     6407.3     6553.2     6036.7
"Line.157_D3_26020_D3_7"             2    -7757.8    -7135.3        0.0        0.0     0.0     0.0
"Line.157_D3_10523_D3_1"             1     4509.4     4966.8        0.0        0.0     0.0     0.0     3993.6     4398.7     3735.8     4114.7
"Line.157_D3_10523_D3_1"             2    -2294.8    -2832.8       -0.0       -0.0    -0.0    -0.0
"Line.157_D3_26021_D3_2"             1     6729.1     7110.3       -0.0       -0.0    -0.0    -0.0     5961.6     6299.2     5577.8     5893.7
"Line.157_D3_26021_D3_2"             2    -6723.9    -7081.9        0.0        0.0     0.0     0.0
"Line.157_D3_9924_D3_1"              1        0.1        0.0       -0.0        0.0     0.0     0.0        0.0        0.0        0.0        0.0
"Line.157_D3_9924_D3_1"              2       -0.1       -0.0        0.0       -0.0    -0.0    -0.0
"Line.157_D3_26022_D3_6"             1     6684.8     7070.1       -0.0       -0.0    -0.0    -0.0     5922.3     6263.7     5541.1     5860.4
"Line.157_D3_26022_D3_6"             2    -6668.7    -6983.2        0.0        0.0     0.0     0.0
"Line.157_D3_66759_D3_2"             1     6579.9     6943.1       -0.0       -0.0    -0.0    -0.0     5829.4     6151.1     5454.2     5755.2
"Line.157_D3_66759_D3_2"             2    -6435.4    -6731.5        0.0        0.0     0.0     0.0
"Line.157_D3_10839_D3_4"             1    10576.3    56403.6       -0.0       -0.0    -0.0    -0.0     4506.3    24032.5     1471.4     7846.9
"Line.157_D3_10839_D3_4"             2   -10574.6   -56402.1        0.0        0.0     0.0     0.0
"Line.157_D3_26019_D3_2"             1     7817.9     7218.5       -0.0       -0.0    -0.0    -0.0     7007.2     6470.0     6601.9     6095.8
"Line.157_D3_26019_D3_2"             2    -7811.8    -7185.6        0.0        0.0     0.0     0.0
"Line.157_D3_9896_D3_3"              1     6342.4     6697.8        0.0        0.0     0.0     0.0     5617.0     5931.8     5254.4     5548.8
"Line.157_D3_9896_D3_3"              2    -5925.3    -6295.9       -0.0       -0.0    -0.0    -0.0
"Line.157_D3_26022_D3_5"             1     6687.0     7081.9       -0.0       -0.0    -0.0    -0.0     5924.3     6274.1     5542.9     5870.2
"Line.157_D3_26022_D3_5"             2    -6684.8    -7070.1        0.0        0.0     0.0     0.0
"Line.157_D3_26031_D3_3"             1     6627.1     6958.2       -0.0       -0.0    -0.0    -0.0     5871.2     6164.5     5493.3     5767.7
"Line.157_D3_26031_D3_3"             2    -6616.8    -6943.1        0.0        0.0     0.0     0.0
"Line.157_D3_26024_D3_6"             1     6668.7     6983.2       -0.0       -0.0    -0.0    -0.0     5908.0     6186.7     5527.7     5788.5
"Line.157_D3_26024_D3_6"             2    -6664.0    -6958.2        0.0        0.0     0.0     0.0
"Line.157_D3_10840_D3_2"             1    10573.2    56402.1       -0.0       -0.0    -0.0    -0.0     4505.0    24031.8     1470.9     7846.7
"Line.157_D3_10840_D3_2"             2   -10571.6   -56400.6        0.0        0.0     0.0     0.0
"Line.157_D3_26018_D3_2"             1     7713.2     7135.3       -0.0       -0.0    -0.0    -0.0     6913.4     6395.4     6513.5     6025.5
"Line.157_D3_26018_D3_2"             2    -7708.5    -7110.3        0.0        0.0     0.0     0.0
"Line.157_D3_26020_D3_6"             1     7767.1     7185.6       -0.0       -0.0    -0.0    -0.0     6961.8     6440.5     6559.1     6068.0
"Line.157_D3_26020_D3_6"             2    -7760.3    -7148.5        0.0        0.0     0.0     0.0
"Line.157_D3_25303_D3_1"             1        0.1        0.0       -0.0        0.0     0.0     0.0        0.0        0.0        0.0        0.0
"Line.157_D3_25303_D3_1"             2       -0.1       -0.0        0.0       -0.0    -0.0    -0.0
"Line.157_D3_9898_D3_1"              1        0.0        0.0        0.0        0.0     0.0     0.0        0.0        0.0        0.0        0.0
"Line.157_D3_9898_D3_1"              2        0.0        0.0        0.0        0.0     0.0     0.0
"Line.157_D3_10378_D3_1"             1        0.0        0.0        0.0        0.0     0.0     0.0        0.0        0.0        0.0        0.0
"Line.157_D3_10378_D3_1"             2        0.0        0.0        0.0        0.0     0.0     0.0
"Line.157_D3_10377_D3_1"             1        0.0        0.0        0.0        0.0     0.0     0.0        0.0        0.0        0.0        0.0
"Line.157_D3_10377_D3_1"             2        0.0        0.0        0.0        0.0     0.0     0.0
"Line.157_D3_10379_D3_1"             1        0.0        0.0        0.0        0.0     0.0     0.0        0.0        0.0        0.0        0.0
"Line.157_D3_10379_D3_1"             2        0.0        0.0        0.0        0.0     0.0     0.0
"Line.157_D3_9900_D3_1"              1        0.0        0.0        0.0        0.0     0.0     0.0        0.0        0.0        0.0        0.0
"Line.157_D3_9900_D3_1"              2        0.0        0.0        0.0        0.0     0.0     0.0
"Line.157_D3_10380_D3_1"             1        0.1        0.0       -0.0        0.0     0.0     0.0        0.0        0.0        0.0        0.0
"Line.157_D3_10380_D3_1"             2       -0.1       -0.0        0.0       -0.0    -0.0    -0.0
"Line.157_D3_10381_D3_1"             1        0.1        0.0       -0.0        0.0     0.0     0.0        0.0        0.0        0.0        0.0
"Line.157_D3_10381_D3_1"             2       -0.1       -0.0        0.0       -0.0    -0.0    -0.0
"Line.157_D3_10517_D3_1"             1        0.1        0.0       -0.0        0.0    -0.0     0.0        0.0        0.0        0.0        0.0
"Line.157_D3_10517_D3_1"             2       -0.1       -0.0        0.0       -0.0     0.0    -0.0
"Line.157_D3_10518_D3_1"             1        0.1        0.0        0.0        0.0    -0.0     0.0        0.0        0.0        0.0        0.0
"Line.157_D3_10518_D3_1"             2       -0.1       -0.0       -0.0       -0.0     0.0    -0.0
"Line.157_D3_9901_D3_1"              1        0.0        0.0        0.0        0.0     0.0     0.0        0.0        0.0        0.0        0.0
"Line.157_D3_9901_D3_1"              2        0.0        0.0        0.0        0.0     0.0     0.0
"Line.157_D3_9902_D3_1"              1        0.1        0.0        0.0        0.0     0.0     0.0        0.0        0.0        0.0        0.0
"Line.157_D3_9902_D3_1"              2       -0.1       -0.0       -0.0       -0.0    -0.0    -0.0
"Line.157_D3_9904_D3_1"              1        0.1        0.0        0.0        0.0     0.0     0.0        0.0        0.0        0.0        0.0
"Line.157_D3_9904_D3_1"              2       -0.1       -0.0       -0.0       -0.0    -0.0    -0.0
"Line.157_D3_9905_D3_1"              1        0.1        0.0        0.0        0.0     0.0     0.0        0.0        0.0        0.0        0.0
"Line.157_D3_9905_D3_1"              2       -0.1       -0.0       -0.0       -0.0    -0.0    -0.0
"Line.157_D3_30237_D3_1"             1        0.0       -0.0       -0.0       -0.0     0.0    -0.0        0.0        0.0        0.0        0.0
"Line.157_D3_30237_D3_1"             2       -0.0        0.0        0.0        0.0     0.0    -0.0
"Line.157_D3_9906_D3_1"              1        0.0       -0.0       -0.0       -0.0    -0.0    -0.0        0.0        0.0        0.0        0.0
"Line.157_D3_9906_D3_1"              2       -0.0        0.0        0.0       -0.0     0.0    -0.0
"Line.157_D3_9907_D3_2"              1       34.7        2.4       -0.0       -0.0    -0.0    -0.0        0.0        0.0        0.0        0.0
"Line.157_D3_9907_D3_2"              2      -34.7       -2.4        0.0        0.0     0.0     0.0
"Line.157_D3_10325_D3_1"             1        0.0        0.0        0.0        0.0     0.0     0.0        0.0        0.0        0.0        0.0
"Line.157_D3_10325_D3_1"             2        0.0        0.0        0.0        0.0     0.0     0.0
"Line.157_D3_25209_D3_1"             1        0.1        0.0        0.0        0.0     0.0     0.0        0.0        0.0        0.0        0.0
"Line.157_D3_25209_D3_1"             2       -0.1       -0.0       -0.0       -0.0    -0.0    -0.0
"Line.157_D3_25210_D3_1"             1        0.1        0.0        0.0        0.0     0.0     0.0        0.0        0.0        0.0        0.0
"Line.157_D3_25210_D3_1"             2       -0.1       -0.0       -0.0       -0.0    -0.0    -0.0
"Line.157_D3_25211_D3_1"             1        0.1        0.0        0.0        0.0     0.0     0.0        0.0        0.0        0.0        0.0
"Line.157_D3_25211_D3_1"             2       -0.1       -0.0       -0.0       -0.0    -0.0    -0.0
"Line.157_D3_25212_D3_1"             1        0.1        0.0        0.0        0.0     0.0     0.0        0.0        0.0        0.0        0.0
"Line.157_D3_25212_D3_1"             2       -0.1       -0.1       -0.0       -0.0    -0.0    -0.0
"Line.157_D3_25213_D3_1"             1        0.1        0.1        0.0        0.0     0.0     0.0        0.0        0.0        0.0        0.0
"Line.157_D3_25213_D3_1"             2       -0.1       -0.1       -0.0       -0.0    -0.0    -0.0
"Line.157_D3_25214_D3_1"             1        0.1        0.1        0.0        0.0     0.0     0.0        0.0        0.0        0.0        0.0
"Line.157_D3_25214_D3_1"             2       -0.1       -0.1       -0.0       -0.0    -0.0    -0.0
"Line.157_D3_25215_D3_1"             1        0.1        0.1        0.0        0.0     0.0     0.0        0.0        0.0        0.0        0.0
"Line.157_D3_25215_D3_1"             2       -0.1       -0.1       -0.0       -0.0    -0.0    -0.0
"Line.157_D3_10329_D3_1"             1        0.0        0.0        0.0        0.0     0.0     0.0        0.0        0.0        0.0        0.0
"Line.157_D3_10329_D3_1"             2        0.0        0.0        0.0        0.0     0.0     0.0
"Line.157_D3_10330_D3_1"             1        0.0        0.0        0.0        0.0     0.0     0.0        0.0        0.0        0.0        0.0
"Line.157_D3_10330_D3_1"             2        0.0        0.0        0.0        0.0     0.0     0.0
"Line.157_D3_10331_D3_1"             1        0.0        0.0        0.0        0.0     0.0     0.0        0.0        0.0        0.0        0.0
"Line.157_D3_10331_D3_1"             2        0.0        0.0        0.0        0.0     0.0     0.0
"Line.157_D3_10332_D3_1"             1        0.0        0.0        0.0        0.0     0.0     0.0        0.0        0.0        0.0        0.0
"Line.157_D3_10332_D3_1"             2        0.0        0.0        0.0        0.0     0.0     0.0
"Line.157_D3_10333_D3_1"             1        0.0        0.0        0.0        0.0     0.0     0.0        0.0        0.0        0.0        0.0
"Line.157_D3_10333_D3_1"             2        0.0        0.0        0.0        0.0     0.0     0.0
"Line.158_D3_2271_D3_1"              1        0.0        0.0        0.0        0.0     0.0     0.0        0.0        0.0        0.0        0.0
"Line.158_D3_2271_D3_1"              2        0.0        0.0        0.0        0.0     0.0     0.0
"Line.157_D3_58708_D3_6"             1        0.0        0.0        0.0        0.0     0.0     0.0        0.0        0.0        0.0        0.0
"Line.157_D3_58708_D3_6"             2        0.0        0.0        0.0        0.0     0.0     0.0
"Line.157_D3_58709_D3_12"            1        0.0        0.0        0.0        0.0     0.0     0.0        0.0        0.0        0.0        0.0
"Line.157_D3_58709_D3_12"            2        0.0        0.0        0.0        0.0     0.0     0.0
"Line.157_D3_10276_D3_3"             1        0.0        0.0        0.0        0.0     0.0     0.0        0.0        0.0        0.0        0.0
"Line.157_D3_10276_D3_3"             2        0.0        0.0        0.0        0.0     0.0     0.0
"Line.157_D3_10830_D3_5"             1        0.0        0.0        0.0        0.0     0.0     0.0        0.0        0.0        0.0        0.0
"Line.157_D3_10830_D3_5"             2        0.0        0.0        0.0        0.0     0.0     0.0
"Line.157_D3_30245_D3_1"             1        0.0        0.0        0.0        0.0     0.0     0.0        0.0        0.0        0.0        0.0
"Line.157_D3_30245_D3_1"             2        0.0        0.0        0.0        0.0     0.0     0.0
"Line.158_D3_21101_D3_1"             1        0.0        0.0        0.0        0.0     0.0     0.0        0.0        0.0        0.0        0.0
"Line.158_D3_21101_D3_1"             2        0.0        0.0        0.0        0.0     0.0     0.0
"Line.158_D3_19773_D3_1"             1        0.0        0.0        0.0        0.0     0.0     0.0        0.0        0.0        0.0        0.0
"Line.158_D3_19773_D3_1"             2        0.0        0.0        0.0        0.0     0.0     0.0
"Line.158_D3_19774_D3_1"             1        0.0        0.0        0.0        0.0     0.0     0.0        0.0        0.0        0.0        0.0
"Line.158_D3_19774_D3_1"             2        0.0        0.0        0.0        0.0     0.0     0.0
"Line.157_D3_10831_D3_1"             1        0.0        0.0        0.0        0.0     0.0     0.0        0.0        0.0        0.0        0.0
"Line.157_D3_10831_D3_1"             2        0.0        0.0        0.0        0.0     0.0     0.0
"Line.157_D3_10274_D3_1"             1        0.0        0.0        0.0        0.0     0.0     0.0        0.0        0.0        0.0        0.0
"Line.157_D3_10274_D3_1"             2        0.0        0.0        0.0        0.0     0.0     0.0
"Line.157_D3_10340_D3_1"             1        0.0        0.0        0.0        0.0     0.0     0.0        0.0        0.0        0.0        0.0
"Line.157_D3_10340_D3_1"             2        0.0        0.0        0.0        0.0     0.0     0.0
"Line.157_D3_10241_D3_4"             1        2.3        2.8        0.0        0.0     0.0     0.0        0.0        0.0        0.0        0.0
"Line.157_D3_10241_D3_4"             2       -2.3       -2.8       -0.0       -0.0    -0.0    -0.0
"Line.157_D3_10242_D3_2"             1        2.3        2.8        0.0        0.0     0.0     0.0        0.0        0.0        0.0        0.0
"Line.157_D3_10242_D3_2"             2       -2.3       -2.8       -0.0       -0.0    -0.0    -0.0
"Line.157_D3_79200_D3_2"             1        2.3        2.8        0.0        0.0     0.0     0.0        0.0        0.0        0.0        0.0
"Line.157_D3_79200_D3_2"             2       -2.3       -2.8       -0.0       -0.0    -0.0    -0.0
"Line.158_D3_37485_D3_4"             1        2.3        2.8        0.0        0.0     0.0     0.0        0.0        0.0        0.0        0.0
"Line.158_D3_37485_D3_4"             2       -2.3       -2.8       -0.0       -0.0    -0.0    -0.0
"Line.157_D3_10248_D3_1"             1        0.0        0.0        0.0        0.0     0.0     0.0        0.0        0.0        0.0        0.0
"Line.157_D3_10248_D3_1"             2        0.0        0.0        0.0        0.0     0.0     0.0
"Line.157_D3_19980_D3_1"             1        0.0        0.0        0.0        0.0     0.0     0.0        0.0        0.0        0.0        0.0
"Line.157_D3_19980_D3_1"             2        0.0        0.0        0.0        0.0     0.0     0.0
"Line.157_D3_19981_D3_1"             1        0.0        0.0        0.0        0.0     0.0     0.0        0.0        0.0        0.0        0.0
"Line.157_D3_19981_D3_1"             2        0.0        0.0        0.0        0.0     0.0     0.0
"Line.157_D3_10257_D3_1"             1        0.0        0.0        0.0        0.0     0.0     0.0        0.0        0.0        0.0        0.0
"Line.157_D3_10257_D3_1"             2        0.0        0.0        0.0        0.0     0.0     0.0
"Line.157_D3_10256_D3_1"             1        0.0        0.0        0.0        0.0     0.0     0.0        0.0        0.0        0.0        0.0
"Line.157_D3_10256_D3_1"             2        0.0        0.0        0.0        0.0     0.0     0.0
"Line.157_D3_10255_D3_1"             1        0.0        0.0        0.0        0.0     0.0     0.0        0.0        0.0        0.0        0.0
"Line.157_D3_10255_D3_1"             2        0.0        0.0        0.0        0.0     0.0     0.0
"Line.157_D3_10254_D3_1"             1        0.0        0.0        0.0        0.0     0.0     0.0        0.0        0.0        0.0        0.0
"Line.157_D3_10254_D3_1"             2        0.0        0.0        0.0        0.0     0.0     0.0
"Line.157_D3_32589_D3_1"             1        0.0        0.0        0.0        0.0     0.0     0.0        0.0        0.0        0.0        0.0
"Line.157_D3_32589_D3_1"             2        0.0        0.0        0.0        0.0     0.0     0.0
"Line.157_D3_32590_D3_1"             1        0.0        0.0        0.0        0.0     0.0     0.0        0.0        0.0        0.0        0.0
"Line.157_D3_32590_D3_1"             2        0.0        0.0        0.0        0.0     0.0     0.0
"Line.158_D3_25153_D3_1"             1        0.0        0.0        0.0        0.0     0.0     0.0        0.0        0.0        0.0        0.0
"Line.158_D3_25153_D3_1"             2        0.0        0.0        0.0        0.0     0.0     0.0
"Line.158_D3_25154_D3_1"             1        0.0        0.0        0.0        0.0     0.0     0.0        0.0        0.0        0.0        0.0
"Line.158_D3_25154_D3_1"             2        0.0        0.0        0.0        0.0     0.0     0.0
"Line.157_D3_10222_D3_1"             1        2.4        1.1        0.0       -0.0    -0.0    -0.0        0.0        0.0        0.0        0.0
"Line.157_D3_10222_D3_1"             2       -2.4       -1.1       -0.0        0.0     0.0     0.0
"Line.157_D3_10223_D3_1"             1        2.4        1.1        0.0       -0.0    -0.0    -0.0        0.0        0.0        0.0        0.0
"Line.157_D3_10223_D3_1"             2       -2.4       -1.1       -0.0        0.0     0.0     0.0
"Line.157_D3_10224_D3_1"             1        0.0        0.0        0.0        0.0     0.0     0.0        0.0        0.0        0.0        0.0
"Line.157_D3_10224_D3_1"             2        0.0        0.0        0.0        0.0     0.0     0.0
"Line.157_D3_10225_D3_1"             1        2.4        1.1        0.0       -0.0    -0.0    -0.0        0.0        0.0        0.0        0.0
"Line.157_D3_10225_D3_1"             2       -2.4       -1.1       -0.0        0.0     0.0     0.0
"Line.157_D3_10226_D3_1"             1        0.0        0.0        0.0        0.0     0.0     0.0        0.0        0.0        0.0        0.0
"Line.157_D3_10226_D3_1"             2        0.0        0.0        0.0        0.0     0.0     0.0
"Line.157_D3_10227_D3_1"             1        2.4        1.1        0.0       -0.0    -0.0    -0.0        0.0        0.0        0.0        0.0
"Line.157_D3_10227_D3_1"             2       -2.4       -1.1       -0.0        0.0     0.0     0.0
"Line.157_D3_10228_D3_1"             1        2.1        1.0        0.0       -0.0    -0.0    -0.0        0.0        0.0        0.0        0.0
"Line.157_D3_10228_D3_1"             2       -2.1       -1.0       -0.0        0.0     0.0     0.0
"Line.157_D3_10229_D3_1"             1        1.0        0.5        0.0        0.0    -0.0     0.0        0.0        0.0        0.0        0.0
"Line.157_D3_10229_D3_1"             2       -1.0       -0.5       -0.0       -0.0     0.0    -0.0
"Line.157_D3_10865_D3_1"             1        0.0       -0.0       -0.0       -0.0     0.0    -0.0        0.0        0.0        0.0        0.0
"Line.157_D3_10865_D3_1"             2       -0.0       -0.0        0.0       -0.0    -0.0    -0.0
"Line.157_D3_24195_D3_1"             1        0.0        0.0        0.0        0.0     0.0     0.0        0.0        0.0        0.0        0.0
"Line.157_D3_24195_D3_1"             2        0.0        0.0        0.0        0.0     0.0     0.0
"Line.157_D3_24196_D3_1"             1        0.0        0.0        0.0        0.0     0.0     0.0        0.0        0.0        0.0        0.0
"Line.157_D3_24196_D3_1"             2        0.0        0.0        0.0        0.0     0.0     0.0
"Line.157_D3_24194_D3_1"             1        0.0        0.0        0.0        0.0     0.0     0.0        0.0        0.0        0.0        0.0
"Line.157_D3_24194_D3_1"             2        0.0        0.0        0.0        0.0     0.0     0.0
"Line.157_D3_24192_D3_1"             1        0.0        0.0        0.0        0.0     0.0     0.0        0.0        0.0        0.0        0.0
"Line.157_D3_24192_D3_1"             2        0.0        0.0        0.0        0.0     0.0     0.0
"Line.157_D3_24193_D3_1"             1        0.0        0.0        0.0        0.0     0.0     0.0        0.0        0.0        0.0        0.0
"Line.157_D3_24193_D3_1"             2        0.0        0.0        0.0        0.0     0.0     0.0
"Line.157_D3_24191_D3_1"             1        0.0        0.0        0.0        0.0     0.0     0.0        0.0        0.0        0.0        0.0
"Line.157_D3_24191_D3_1"             2        0.0        0.0        0.0        0.0     0.0     0.0
"Line.157_D3_24189_D3_1"             1        0.0        0.0        0.0        0.0     0.0     0.0        0.0        0.0        0.0        0.0
"Line.157_D3_24189_D3_1"             2        0.0        0.0        0.0        0.0     0.0     0.0
"Line.157_D3_24190_D3_1"             1        0.0        0.0        0.0        0.0     0.0     0.0        0.0        0.0        0.0        0.0
"Line.157_D3_24190_D3_1"             2        0.0        0.0        0.0        0.0     0.0     0.0
"Line.157_D3_10250_D3_1"             1        0.0        0.0        0.0        0.0     0.0     0.0        0.0        0.0        0.0        0.0
"Line.157_D3_10250_D3_1"             2        0.0        0.0        0.0        0.0     0.0     0.0
"Line.157_D3_24187_D3_1"             1        0.0        0.0        0.0        0.0     0.0     0.0        0.0        0.0        0.0        0.0
"Line.157_D3_24187_D3_1"             2        0.0        0.0        0.0        0.0     0.0     0.0
"Line.157_D3_24188_D3_1"             1        0.0        0.0        0.0        0.0     0.0     0.0        0.0        0.0        0.0        0.0
"Line.157_D3_24188_D3_1"             2        0.0        0.0        0.0        0.0     0.0     0.0
"Line.157_D3_10530_D3_1"             1        0.0        0.0        0.0        0.0     0.0     0.0        0.0        0.0        0.0        0.0
"Line.157_D3_10530_D3_1"             2        0.0        0.0        0.0        0.0     0.0     0.0
"Line.157_D3_24185_D3_1"             1        0.0        0.0        0.0        0.0     0.0     0.0        0.0        0.0        0.0        0.0
"Line.157_D3_24185_D3_1"             2        0.0        0.0        0.0        0.0     0.0     0.0
"Line.157_D3_24186_D3_1"             1        0.0        0.0        0.0        0.0     0.0     0.0        0.0        0.0        0.0        0.0
"Line.157_D3_24186_D3_1"             2        0.0        0.0        0.0        0.0     0.0     0.0
"Line.157_D3_24184_D3_1"             1        0.0        0.0        0.0        0.0     0.0     0.0        0.0        0.0        0.0        0.0
"Line.157_D3_24184_D3_1"             2        0.0        0.0        0.0        0.0     0.0     0.0
"Line.157_D3_24183_D3_1"             1        0.0        0.0        0.0        0.0     0.0     0.0        0.0        0.0        0.0        0.0
"Line.157_D3_24183_D3_1"             2        0.0        0.0        0.0        0.0     0.0     0.0
...
"Line.OH164056"                      1       -0.0       -0.0        0.0       -0.0     0.0    -0.0        0.0        0.0        0.0        0.0
"Line.OH164056"                      2        0.0       -0.0        0.0       -0.0     0.0     0.0
"Line.157_D3_65962_D3_2"             1       -0.0       -0.0        0.0        0.0     0.0    -0.0        0.0        0.0        0.0        0.0
"Line.157_D3_65962_D3_2"             2        0.0        0.0       -0.0       -0.0    -0.0     0.0
"Line.157_D3_65963_D3_2"             1        0.0        0.0        0.0        0.0     0.0     0.0        0.0        0.0        0.0        0.0
"Line.157_D3_65963_D3_2"             2        0.0        0.0        0.0        0.0     0.0     0.0
"Line.OH164055"                      1       -0.0       -0.0        0.0       -0.0    -0.0    -0.0        0.0        0.0        0.0        0.0
"Line.OH164055"                      2        0.0        0.0       -0.0        0.0     0.0    -0.0
"Line.157_D3_26026_D3_5"             1       -0.0       -0.0       -0.0       -0.0     0.0    -0.0        0.0        0.0        0.0        0.0
"Line.157_D3_26026_D3_5"             2        0.0        0.0        0.0        0.0    -0.0     0.0
"Line.157_D3_26025_D3_2"             1        0.0       -0.0       -0.0       -0.0     0.0    -0.0        0.0        0.0        0.0        0.0
"Line.157_D3_26025_D3_2"             2       -0.0        0.0        0.0        0.0    -0.0     0.0
"Line.157_D3_10841_D3_1"             1        0.0       -0.0       -0.0       -0.0    -0.0    -0.0        0.0        0.0        0.0        0.0
"Line.157_D3_10841_D3_1"             2        0.0        0.0        0.0        0.0     0.0    -0.0
"Line.157_D3_65960_D3_3"             1        0.0       -0.0        0.0       -0.0    -0.0    -0.0        0.0        0.0        0.0        0.0
"Line.157_D3_65960_D3_3"             2       -0.0        0.0       -0.0       -0.0    -0.0    -0.0
"Line.157_D3_65959_D3_2"             1        0.0       -0.0        0.0       -0.0     0.0    -0.0        0.0        0.0        0.0        0.0
"Line.157_D3_65959_D3_2"             2       -0.0       -0.0       -0.0        0.0     0.0     0.0
"Line.157_D3_10503_D3_1"             1        0.5        0.2       -0.0        0.0     0.0     0.0        0.0        0.0        0.0        0.0
"Line.157_D3_10503_D3_1"             2       -0.5       -0.2        0.0       -0.0    -0.0    -0.0
"Line.157_D3_10504_D3_1"             1        0.5        0.2       -0.0        0.0     0.0     0.0        0.0        0.0        0.0        0.0
"Line.157_D3_10504_D3_1"             2       -0.5       -0.2        0.0       -0.0    -0.0    -0.0
"Line.157_D3_10505_D3_1"             1        0.5        0.2       -0.0        0.0     0.0     0.0        0.0        0.0        0.0        0.0
"Line.157_D3_10505_D3_1"             2       -0.5       -0.2        0.0       -0.0    -0.0    -0.0
"Line.157_D3_9963_D3_1"              1        0.0        0.0        0.0        0.0     0.0     0.0        0.0        0.0        0.0        0.0
"Line.157_D3_9963_D3_1"              2        0.0        0.0        0.0        0.0     0.0     0.0
"Line.157_D3_10506_D3_1"             1        0.5        0.2       -0.0        0.0     0.0     0.0        0.0        0.0        0.0        0.0
"Line.157_D3_10506_D3_1"             2       -0.5       -0.2        0.0       -0.0    -0.0    -0.0
"Line.157_D3_10507_D3_1"             1        0.5        0.2       -0.0        0.0     0.0     0.0        0.0        0.0        0.0        0.0
"Line.157_D3_10507_D3_1"             2       -0.5       -0.2        0.0       -0.0    -0.0    -0.0
"Line.157_D3_10508_D3_1"             1        0.0        0.0        0.0        0.0     0.0     0.0        0.0        0.0        0.0        0.0
"Line.157_D3_10508_D3_1"             2        0.0        0.0        0.0        0.0     0.0     0.0
"Line.157_D3_10509_D3_1"             1        0.0        0.0        0.0        0.0     0.0     0.0        0.0        0.0        0.0        0.0
"Line.157_D3_10509_D3_1"             2        0.0        0.0        0.0        0.0     0.0     0.0
"Line.157_D3_10510_D3_1"             1        0.0        0.0        0.0        0.0     0.0     0.0        0.0        0.0        0.0        0.0
"Line.157_D3_10510_D3_1"             2        0.0        0.0        0.0        0.0     0.0     0.0
"Line.157_D3_10513_D3_1"             1        0.0        0.0        0.0        0.0     0.0     0.0        0.0        0.0        0.0        0.0
"Line.157_D3_10513_D3_1"             2        0.0        0.0        0.0        0.0     0.0     0.0
...