data/wto_VLN.Txt

SYMMETRICAL COMPONENT VOLTAGES BY BUS (for 3-phase buses)

Bus                 Mag:   V1 (kV)    p.u.     V2 (kV)   %V2/V1    V0 (kV)    %V0/V1

internalwto            22.87     0.5742  0.0005287   0.002311  2.549E-9  1.114E-8
151_d3_41819          0.8219     0.1142  0.0002522    0.03068  0.001344    0.1635
157_d3_10522_d3_4     0.6396    0.08884  0.0001961    0.03067  0.001338    0.2092
151_d3_786             0.883     0.1227  0.0002698    0.03055  0.001343    0.1521
157_d3_66760_d3_3     0.8794     0.1222  0.0002699    0.03069  0.001346     0.153
wto                    27.45      0.689  0.0006345   0.002312  3.059E-9  1.114E-8
oh164054               27.45      0.689  0.0006345   0.002312  3.059E-9  1.114E-8
157_d3_9924_d3_1      0.3475    0.04827  0.0001172    0.03373  0.001269    0.3653
157_d3_9925_d3_1      0.3475    0.04827  0.0001192    0.03431  0.001263    0.3636
157_d3_10523_d3_1     0.3476    0.04828  0.0001066    0.03066  0.001328    0.3821
157_d3_9897_d3_1      0.4893    0.06797  0.0001483    0.03031  0.001326     0.271
157_d3_25303_d3_1     0.3475    0.04828  0.0001059    0.03047   0.00131    0.3769
157_d3_25304_d3_1     0.3475    0.04827  0.0001125    0.03237  0.001285    0.3696
157_d3_26020_d3_6     0.9119     0.1267  0.0002434    0.02669  0.001192    0.1307
157_d3_26020_d3_7      0.911     0.1265  0.0002434    0.02672  0.001192    0.1309
150_d3_12             0.9307     0.1293  0.0002685    0.02884  0.001315    0.1413
157_d3_26021_d3_2     0.9284      0.129  0.0002686    0.02893  0.001317    0.1419
157_d3_26022_d3_5     0.9251     0.1285  0.0002686    0.02904  0.001318    0.1425
157_d3_26022_d3_6      0.918     0.1275  0.0002689    0.02929  0.001324    0.1443
151_d3_42214          0.9094     0.1263   0.000269    0.02958  0.001327     0.146
157_d3_66759_d3_2     0.8854      0.123  0.0002697    0.03047  0.001343    0.1517
151_d3_42221-b         27.45      0.689  0.0006345   0.002312  3.059E-9  1.114E-8
157_d3_10839_d3_4      27.45      0.689  0.0006346   0.002312  3.059E-9  1.114E-8
1390_d3_24438         0.9197     0.1278  0.0002432    0.02644  0.001187    0.1291
157_d3_26019_d3_2     0.9174     0.1274  0.0002433    0.02652  0.001189    0.1296
157_d3_9896_d3_3      0.8242     0.1145  0.0002529    0.03068  0.001344     0.163
151_d3_42220           0.926     0.1286  0.0002686      0.029  0.001317    0.1423
154_d3_98             0.9136     0.1269   0.000269    0.02944  0.001326    0.1452
157_d3_26031_d3_3     0.9118     0.1267   0.000269     0.0295  0.001327    0.1456
157_d3_26024_d3_6      0.916     0.1272  0.0002689    0.02936  0.001326    0.1448
155_d3_17500           27.45     0.6889  0.0006346   0.002312  3.059E-9  1.114E-8
157_d3_10840_d3_2      27.44     0.6889  0.0006346   0.002312  3.059E-9  1.114E-8
151_d3_42219          0.9082     0.1261  0.0002435    0.02681  0.001192    0.1313
157_d3_26018_d3_2     0.9064     0.1259  0.0002435    0.02687  0.001194    0.1317
151_d3_42600          0.9145      0.127  0.0002433     0.0266  0.001189      0.13
157_d3_9898_d3_1      0.3466    0.04815          0          0         0         0
157_d3_10377_d3_1     0.3466    0.04815          0          0         0         0
157_d3_10378_d3_1     0.3466    0.04815          0          0         0         0
157_d3_10379_d3_1     0.3466    0.04815          0          0         0         0
157_d3_9900_d3_1      0.3486    0.04842          0          0         0         0
157_d3_10380_d3_1     0.3474    0.04826  0.0001279     0.0368  0.001241    0.3572
157_d3_10381_d3_1     0.3474    0.04826  0.0001296    0.03729  0.001237    0.3561
157_d3_10517_d3_1     0.3474    0.04826  0.0001296    0.03729  0.001237    0.3561
157_d3_10518_d3_1     0.3474    0.04826  0.0001295    0.03729  0.001237    0.3561
157_d3_9901_d3_1      0.3466    0.04815          0          0         0         0
157_d3_9902_d3_1      0.3474    0.04826  0.0001295    0.03729  0.001237    0.3561
157_d3_9904_d3_1      0.3474    0.04826  0.0001295    0.03729  0.001237    0.3561
157_d3_9905_d3_1      0.3474    0.04826  0.0001295    0.03729  0.001237    0.3561
157_d3_30237_d3_1     0.3474    0.04826  0.0001295    0.03729  0.001237    0.3561
157_d3_9906_d3_1      0.3474    0.04826  0.0001295    0.03729  0.001237    0.3561
157_d3_9907_d3_2       0.879     0.1221  0.0003246    0.03692  0.001459     0.166
157_d3_10324_d3_1     0.8542     0.1187          0          0         0         0
157_d3_10325_d3_1     0.8542     0.1187          0          0         0         0
157_d3_10327_d3_1      0.856     0.1189    0.00244     0.2851   0.00167    0.1951
157_d3_25209_d3_1      0.856     0.1189    0.00244     0.2851   0.00167    0.1951
157_d3_25210_d3_1      0.856     0.1189    0.00244     0.2851   0.00167    0.1951
157_d3_25211_d3_1      0.856     0.1189    0.00244     0.2851   0.00167    0.1951
157_d3_25212_d3_1      0.856     0.1189    0.00244     0.2851   0.00167    0.1951
157_d3_25213_d3_1      0.856     0.1189    0.00244     0.2851   0.00167    0.1951
157_d3_25214_d3_1      0.856     0.1189    0.00244     0.2851   0.00167    0.1951
157_d3_25215_d3_1      0.856     0.1189    0.00244     0.2851   0.00167    0.1951
157_d3_10278_d3_1     0.8568      0.119    0.00221     0.2579  0.001971      0.23
157_d3_10329_d3_1     0.8551     0.1188          0          0         0         0
157_d3_10330_d3_1     0.8551     0.1188          0          0         0         0
157_d3_10331_d3_1     0.8551     0.1188          0          0         0         0
157_d3_10332_d3_1     0.8551     0.1188          0          0         0         0
157_d3_10333_d3_1     0.8551     0.1188          0          0         0         0
157_d3_10277_d3_1      0.857     0.1191   0.002183     0.2547  0.001976    0.2306
158_d3_2271_d3_1      0.8576     0.1191          0          0         0         0
157_d3_10328_d3_1     0.8578     0.1192   0.002075     0.2419  0.002006    0.2338
157_d3_58708_d3_6     0.8588     0.1193          0          0         0         0
155_d3_16309          0.8588     0.1193          0          0         0         0
157_d3_58709_d3_12    0.8587     0.1193          0          0         0         0
157_d3_10276_d3_3     0.8587     0.1193          0          0         0         0
157_d3_10830_d3_5     0.8586     0.1193          0          0         0         0
157_d3_30245_d3_1     0.8586     0.1193          0          0         0         0
155_d3_1164           0.8586     0.1193          0          0         0         0
158_d3_21101_d3_1     0.8586     0.1193          0          0         0         0
158_d3_19773_d3_1     0.8586     0.1193          0          0         0         0
158_d3_19774_d3_1     0.8586     0.1193          0          0         0         0
157_d3_10831_d3_1     0.8586     0.1193          0          0         0         0
157_d3_10268_d3_1      0.859     0.1193   0.001978     0.2303  0.002054    0.2391
157_d3_10274_d3_1     0.8597     0.1194          0          0         0         0
157_d3_26377_d3_2     0.8608     0.1196     0.0018     0.2091  0.002206    0.2563
157_d3_10340_d3_1     0.8618     0.1197          0          0         0         0
157_d3_10239_d3_1     0.8637       0.12   0.001477     0.1711  0.002677      0.31
157_d3_10241_d3_4     0.8634     0.1199   0.001477     0.1711  0.002676    0.3099
157_d3_10242_d3_2     0.8634     0.1199   0.001477     0.1711  0.002676    0.3099
157_d3_79200_d3_2     0.8634     0.1199   0.001477     0.1711  0.002676    0.3099
155_d3_23912          0.8634     0.1199   0.001477     0.1711  0.002676    0.3099
158_d3_37485_d3_4     0.8634     0.1199   0.001477     0.1711  0.002676    0.3099
157_d3_10220_d3_1     0.8672     0.1205   0.001327      0.153  0.003241    0.3737
157_d3_10248_d3_1     0.8697     0.1208          0          0         0         0
157_d3_19980_d3_1     0.8697     0.1208          0          0         0         0
157_d3_19981_d3_1     0.8697     0.1208          0          0         0         0
157_d3_10257_d3_1     0.8697     0.1208          0          0         0         0
157_d3_10256_d3_1     0.8696     0.1208          0          0         0         0
157_d3_10255_d3_1     0.8696     0.1208          0          0         0         0
157_d3_10254_d3_1     0.8696     0.1208          0          0         0         0
157_d3_32589_d3_1     0.8696     0.1208          0          0         0         0
157_d3_32590_d3_1     0.8696     0.1208          0          0         0         0
155_d3_1543           0.8696     0.1208          0          0         0         0
158_d3_25153_d3_1     0.8696     0.1208          0          0         0         0
158_d3_25154_d3_1     0.8696     0.1208          0          0         0         0
157_d3_10219_d3_1     0.8673     0.1205   0.001326     0.1528  0.003264    0.3764
157_d3_10222_d3_1     0.8673     0.1205   0.001323     0.1526  0.003317    0.3825
151_d3_619            0.8673     0.1205   0.001323     0.1525  0.003318    0.3825
157_d3_10223_d3_1     0.8671     0.1204   0.001317     0.1519   0.00353    0.4071
157_d3_10224_d3_1       0.87     0.1208          0          0         0         0
157_d3_10225_d3_1     0.8671     0.1204   0.001316     0.1518    0.0036    0.4152
157_d3_10226_d3_1     0.8654     0.1202          0          0         0         0
157_d3_10227_d3_1      0.867     0.1204   0.001316     0.1518  0.003693    0.4259
157_d3_10228_d3_1     0.8669     0.1204   0.001318      0.152  0.003764    0.4341
157_d3_10229_d3_1     0.8669     0.1204   0.001294     0.1493  0.003778    0.4358
157_d3_10865_d3_1     0.8669     0.1204   0.001294     0.1493  0.003778    0.4358
157_d3_24195_d3_1     0.8654     0.1202          0          0         0         0
157_d3_24196_d3_1     0.8653     0.1202          0          0         0         0
157_d3_24194_d3_1     0.8652     0.1202          0          0         0         0
157_d3_24192_d3_1     0.8652     0.1202          0          0         0         0
157_d3_24193_d3_1     0.8651     0.1202          0          0         0         0
157_d3_24191_d3_1      0.865     0.1202          0          0         0         0
157_d3_24189_d3_1      0.865     0.1202          0          0         0         0
157_d3_24190_d3_1     0.8649     0.1201          0          0         0         0
157_d3_10250_d3_1     0.8649     0.1201          0          0         0         0
157_d3_24187_d3_1     0.8648     0.1201          0          0         0         0
157_d3_24188_d3_1     0.8647     0.1201          0          0         0         0
157_d3_10530_d3_1     0.8647     0.1201          0          0         0         0
157_d3_24185_d3_1     0.8646     0.1201          0          0         0         0
157_d3_24186_d3_1     0.8646     0.1201          0          0         0         0
157_d3_24184_d3_1     0.8646     0.1201          0          0         0         0
157_d3_24183_d3_1     0.8646     0.1201          0          0         0         0
157_d3_24181_d3_1     0.8646     0.1201          0          0         0         0
157_d3_24182_d3_1     0.8646     0.1201          0          0         0         0
157_d3_10230_d3_1     0.8652     0.1202          0          0         0         0
157_d3_10249_d3_1      0.865     0.1202          0          0         0         0
157_d3_17055_d3_1      0.865     0.1202          0          0         0         0
157_d3_10279_d3_1     0.8564      0.119   0.002263     0.2642  0.001949    0.2276
157_d3_10284_d3_1     0.8561     0.1189    0.00228     0.2664  0.001993    0.2328
157_d3_10285_d3_1     0.8542     0.1187          0          0         0         0
157_d3_10286_d3_1     0.8542     0.1187          0          0         0         0
157_d3_10287_d3_1     0.8556     0.1188   0.002297     0.2685   0.00203    0.2372
157_d3_10288_d3_1     0.8569      0.119          0          0         0         0
159_d3_11223_d3_1     0.8569      0.119          0          0         0         0
157_d3_10343_d3_1     0.8561     0.1189          0          0         0         0
157_d3_10344_d3_1      0.856     0.1189          0          0         0         0
157_d3_10342_d3_1     0.8559     0.1189          0          0         0         0
157_d3_10306_d3_1     0.8559     0.1189          0          0         0         0
157_d3_10305_d3_1     0.8558     0.1189          0          0         0         0
157_d3_11921_d3_1     0.8558     0.1189          0          0         0         0
157_d3_11922_d3_1     0.8558     0.1189          0          0         0         0
157_d3_32234_d3_1     0.8558     0.1189          0          0         0         0
157_d3_32235_d3_1     0.8558     0.1189          0          0         0         0
157_d3_36711_d3_1     0.8553     0.1188   0.002281     0.2667  0.002111    0.2468
157_d3_36714_d3_1     0.8538     0.1186   0.002227     0.2608  0.002433     0.285
157_d3_10334_d3_1     0.8538     0.1186   0.002226     0.2607  0.002441    0.2859
157_d3_10335_d3_1     0.8513     0.1183   0.002177     0.2557  0.002962    0.3479
157_d3_10290_d3_1     0.8518     0.1183          0          0         0         0
157_d3_10291_d3_1      0.851     0.1182   0.002174     0.2554  0.003036    0.3568
151_d3_633             0.851     0.1182   0.002174     0.2554  0.003036    0.3568
157_d3_10292_d3_1     0.8509     0.1182   0.002173     0.2554  0.003051    0.3586
157_d3_10301_d3_1       0.85     0.1181   0.002171     0.2555  0.003246    0.3818
157_d3_10302_d3_1     0.8486     0.1179   0.002184     0.2574  0.003543    0.4175
157_d3_10303_d3_1     0.8481     0.1178   0.002123     0.2504  0.003552    0.4188
157_d3_10304_d3_1     0.8477     0.1177    0.00207     0.2442  0.003563    0.4203
157_d3_10312_d3_1     0.8507     0.1182          0          0         0         0
157_d3_24495_d3_1     0.8475     0.1177   0.002051      0.242  0.003567    0.4209
157_d3_24494_d3_1     0.8468     0.1176    0.00205      0.242  0.003562    0.4206
157_d3_24496_d3_1     0.8467     0.1176   0.002049      0.242  0.003561    0.4206
160_d3_36068_d3_1     0.8467     0.1176   0.002049      0.242  0.003561    0.4206
157_d3_25903_d3_1      0.847     0.1177          0          0         0         0
154_d3_312             0.847     0.1177          0          0         0         0
157_d3_25904_d3_1      0.844     0.1172          0          0         0         0
157_d3_10321_d3_2      0.844     0.1172          0          0         0         0
157_d3_10321_d3_3     0.8438     0.1172          0          0         0         0
157_d3_10322_d3_1     0.8432     0.1171          0          0         0         0
157_d3_10270_d3_1     0.8431     0.1171          0          0         0         0
157_d3_9987_d3_1      0.8431     0.1171          0          0         0         0
157_d3_9988_d3_1      0.8431     0.1171          0          0         0         0
157_d3_10315_d3_1     0.8432     0.1171          0          0         0         0
157_d3_10316_d3_1     0.8431     0.1171          0          0         0         0
157_d3_17129_d3_1      0.844     0.1172          0          0         0         0
154_d3_541             0.844     0.1172          0          0         0         0
157_d3_17130_d3_1     0.8437     0.1172          0          0         0         0
157_d3_10171_d3_1     0.8437     0.1172          0          0         0         0
157_d3_10172_d3_1     0.8433     0.1171          0          0         0         0
157_d3_10320_d3_1     0.8425      0.117          0          0         0         0
157_d3_10319_d3_1     0.8419     0.1169          0          0         0         0
157_d3_10318_d3_2     0.8419     0.1169          0          0         0         0
157_d3_10314_d3_3     0.8419     0.1169          0          0         0         0
157_d3_29478_d3_1     0.8418     0.1169          0          0         0         0
157_d3_29479_d3_1     0.8417     0.1169          0          0         0         0
157_d3_28436_d3_1     0.8417     0.1169          0          0         0         0
157_d3_10317_d3_2     0.8416     0.1169          0          0         0         0
157_d3_29480_d3_3     0.8415     0.1169          0          0         0         0
157_d3_29481_d3_2     0.8415     0.1169          0          0         0         0
157_d3_29711_d3_3     0.8415     0.1169          0          0         0         0
157_d3_32604_d3_1     0.8416     0.1169          0          0         0         0
157_d3_10313_d3_1     0.8437     0.1172          0          0         0         0
157_d3_10293_d3_1     0.8455     0.1174          0          0         0         0
154_d3_102            0.8455     0.1174          0          0         0         0
157_d3_10294_d3_1     0.8454     0.1174          0          0         0         0
157_d3_10295_d3_1     0.8453     0.1174          0          0         0         0
157_d3_10296_d3_1     0.8452     0.1174          0          0         0         0
157_d3_10176_d3_1     0.8451     0.1174          0          0         0         0
157_d3_10177_d3_1     0.8451     0.1174          0          0         0         0
157_d3_10174_d3_1      0.845     0.1174          0          0         0         0
157_d3_10175_d3_1      0.845     0.1174          0          0         0         0
...
oh164056               0.918     0.1275  0.0002689    0.02929  0.001324    0.1443
157_d3_65962_d3_2      0.918     0.1275  0.0002689    0.02929  0.001324    0.1443
155_d3_17501           0.918     0.1275  0.0002689    0.02929  0.001324    0.1443
157_d3_65963_d3_2     0.9191     0.1277          0          0         0         0
oh164055               0.918     0.1275  0.0002689    0.02929  0.001324    0.1443
157_d3_26026_d3_5      0.918     0.1275  0.0002689    0.02929  0.001324    0.1443
151_d3_42217           0.918     0.1275  0.0002689    0.02929  0.001324    0.1443
157_d3_26025_d3_2      0.918     0.1275  0.0002689    0.02929  0.001324    0.1443
157_d3_10841_d3_1      0.918     0.1275  0.0002689    0.02929  0.001324    0.1443
157_d3_65960_d3_3     0.9251     0.1285  0.0002686    0.02904  0.001318    0.1425
157_d3_65959_d3_2     0.9119     0.1267  0.0002434    0.02669  0.001192    0.1307
157_d3_10503_d3_1     0.8661     0.1203   0.004088      0.472  0.008924      1.03
157_d3_10504_d3_1     0.8661     0.1203   0.004097      0.473  0.008898     1.027
157_d3_10505_d3_1     0.8661     0.1203   0.004104     0.4739  0.008874     1.025
157_d3_9963_d3_1      0.8729     0.1212          0          0         0         0
157_d3_10506_d3_1     0.8661     0.1203   0.004111     0.4747  0.008852     1.022
157_d3_10507_d3_1     0.8661     0.1203   0.004118     0.4754  0.008832      1.02
157_d3_10508_d3_1     0.8728     0.1212          0          0         0         0
157_d3_10509_d3_1     0.8727     0.1212          0          0         0         0
157_d3_10510_d3_1     0.8727     0.1212          0          0         0         0
157_d3_10513_d3_1     0.8726     0.1212          0          0         0         0
157_d3_10514_d3_1     0.8726     0.1212          0          0         0         0
157_d3_9965_d3_1      0.8726     0.1212          0          0         0         0
157_d3_9966_d3_1      0.8726     0.1212          0          0         0         0
157_d3_10515_d3_1     0.8725     0.1212          0          0         0         0
157_d3_10516_d3_1     0.8725     0.1212          0          0         0         0
157_d3_9973_d3_1      0.8725     0.1212          0          0         0         0
157_d3_9972_d3_1      0.8724     0.1212          0          0         0         0
157_d3_9967_d3_1      0.8724     0.1212          0          0         0         0
157_d3_9968_d3_1      0.8724     0.1212          0          0         0         0
157_d3_10511_d3_1     0.8661     0.1203   0.004115     0.4752  0.008833      1.02
157_d3_10512_d3_1     0.8661     0.1203   0.004114      0.475  0.008833      1.02
157_d3_9964_d3_1       0.866     0.1203          0          0         0         0
157_d3_10500_d3_1     0.8665     0.1204   0.003922     0.4527  0.008763     1.011
157_d3_10501_d3_1     0.8734     0.1213          0          0         0         0
157_d3_10502_d3_1     0.8734     0.1213          0          0         0         0
157_d3_9958_d3_1      0.8602     0.1195          0          0         0         0
158_d3_5277_d3_1       0.861     0.1196          0          0         0         0
157_d3_9956_d3_1      0.8672     0.1205   0.003578     0.4125  0.008105    0.9345
157_d3_10432_d3_1     0.8673     0.1205   0.003512     0.4049  0.007936     0.915
157_d3_10023_d3_1     0.8673     0.1205   0.003514     0.4052  0.007902    0.9111
157_d3_10430_d3_1     0.8673     0.1205   0.003514     0.4052  0.007891    0.9099
157_d3_10431_d3_1     0.8672     0.1205   0.003513     0.4051  0.007879    0.9085
157_d3_10429_d3_1     0.8672     0.1205   0.003511     0.4048  0.007871    0.9076
157_d3_9969_d3_1      0.8672     0.1205   0.003518     0.4057  0.007851    0.9053
157_d3_9970_d3_1      0.8672     0.1205   0.003523     0.4062  0.007838    0.9038
157_d3_9961_d3_1      0.8672     0.1205   0.003523     0.4063  0.007836    0.9036
157_d3_10423_d3_1     0.8672     0.1205   0.003525     0.4065  0.007831     0.903
157_d3_10424_d3_1     0.8672     0.1205   0.003529     0.4069  0.007821    0.9018
157_d3_10425_d3_1     0.8672     0.1205   0.003531     0.4072  0.007815    0.9012
157_d3_10426_d3_1     0.8672     0.1205   0.003532     0.4072  0.007813     0.901
157_d3_10427_d3_1     0.8666     0.1204          0          0         0         0
157_d3_10428_d3_1     0.8666     0.1204          0          0         0         0
157_d3_9971_d3_1      0.8666     0.1204          0          0         0         0
157_d3_9959_d3_1      0.8666     0.1204          0          0         0         0
157_d3_9960_d3_1      0.8666     0.1204          0          0         0         0
157_d3_9954_d3_1      0.8667     0.1204          0          0         0         0
157_d3_27237_d3_1     0.8674     0.1205    0.00348     0.4012   0.00791    0.9119
157_d3_9952_d3_1      0.8678     0.1205   0.003185     0.3671  0.007392    0.8518
157_d3_30251_d3_1     0.8678     0.1205   0.003185     0.3671  0.007392    0.8518
157_d3_9950_d3_1       0.867     0.1204          0          0         0         0
157_d3_9948_d3_1      0.8671     0.1204          0          0         0         0
157_d3_9947_d3_2      0.8681     0.1206   0.002965     0.3415     0.007    0.8064
157_d3_78395_d3_2     0.8681     0.1206   0.002965     0.3415     0.007    0.8064
155_d3_23108          0.8681     0.1206   0.002965     0.3415  0.007001    0.8064
158_d3_98214_d3_1     0.8681     0.1206   0.002965     0.3416  0.007001    0.8065
151_d3_59534-b        0.8681     0.1206   0.002965     0.3416  0.007001    0.8065
158_d3_98210_d3_2     0.8681     0.1206   0.002965     0.3416  0.007001    0.8065
158_d3_98207_d3_1     0.8681     0.1206   0.002965     0.3416  0.007001    0.8065
158_d3_98208_d3_1     0.8681     0.1206   0.002965     0.3416  0.007001    0.8065
158_d3_98209_d3_1     0.8681     0.1206   0.002965     0.3416  0.007001    0.8065
158_d3_98213_d3_2     0.8681     0.1206   0.002965     0.3416  0.007001    0.8065
151_d3_59531-b        0.8681     0.1206   0.002965     0.3416  0.007001    0.8065
158_d3_2275_d3_5       0.868     0.1206   0.002973     0.3425  0.007009    0.8075
158_d3_36818_d3_1     0.8635     0.1199          0          0         0         0
157_d3_75995_d3_1     0.8693     0.1208   0.002299     0.2645  0.005863    0.6745
155_d3_20710          0.8693     0.1208   0.002299     0.2645  0.005863    0.6745
158_d3_7005_d3_4      0.8693     0.1207   0.002296     0.2642  0.005869    0.6751
151_d3_8677           0.8693     0.1207   0.002296     0.2641  0.005869    0.6751
158_d3_25342_d3_1     0.8693     0.1207   0.002296     0.2641  0.005869    0.6751
158_d3_25340_d3_1     0.8693     0.1207   0.002296     0.2641  0.005869    0.6751
158_d3_25338_d3_1     0.8693     0.1207   0.002296     0.2641  0.005869    0.6751
151_d3_8678           0.8693     0.1207   0.002296     0.2641  0.005869    0.6751
158_d3_25343_d3_1     0.8693     0.1207   0.002295      0.264  0.005871    0.6754
158_d3_7006_d3_1      0.8692     0.1207   0.002293     0.2638  0.005873    0.6757
158_d3_7007_d3_3      0.8692     0.1207   0.002293     0.2638  0.005873    0.6757
157_d3_39540_d3_2     0.8668     0.1204   0.001333     0.1538  0.003125    0.3605
157_d3_39541_d3_1     0.8666     0.1204   0.001335     0.1541  0.003096    0.3572
154_d3_100            0.8666     0.1204   0.001336     0.1541  0.003096    0.3572
157_d3_10362_d3_1     0.8661     0.1203   0.001346     0.1554  0.002974    0.3434
157_d3_10363_d3_1     0.8658     0.1203   0.001353     0.1563  0.002899    0.3348
157_d3_10013_d3_1     0.8658     0.1203   0.001351      0.156  0.002896    0.3345
157_d3_10231_d3_1     0.8657     0.1203   0.001357     0.1567  0.002873    0.3318
157_d3_10232_d3_1     0.8657     0.1203   0.001361     0.1572  0.002864    0.3308
157_d3_10233_d3_1     0.8651     0.1202          0          0         0         0
157_d3_10238_d3_1     0.8657     0.1203   0.001375     0.1588   0.00284    0.3281
157_d3_10353_d3_1     0.8676     0.1205          0          0         0         0
157_d3_10354_d3_1     0.8676     0.1205          0          0         0         0
157_d3_10349_d3_1     0.8676     0.1205          0          0         0         0
157_d3_10350_d3_1     0.8676     0.1205          0          0         0         0
157_d3_10351_d3_1     0.8676     0.1205          0          0         0         0
157_d3_10352_d3_1     0.8676     0.1205          0          0         0         0
157_d3_10355_d3_1     0.8643     0.1201          0          0         0         0
157_d3_10356_d3_1     0.8643     0.1201          0          0         0         0
157_d3_10360_d3_1     0.8677     0.1205          0          0         0         0
157_d3_10361_d3_1     0.8677     0.1205          0          0         0         0
157_d3_10234_d3_1     0.8677     0.1205          0          0         0         0
157_d3_10235_d3_1     0.8677     0.1205          0          0         0         0
157_d3_10236_d3_1     0.8677     0.1205          0          0         0         0
157_d3_10237_d3_1     0.8677     0.1205          0          0         0         0
157_d3_10358_d3_1     0.8657     0.1203   0.001354     0.1564  0.002874     0.332
157_d3_10359_d3_1     0.8657     0.1203   0.001352     0.1562  0.002875    0.3321
157_d3_10357_d3_1     0.8657     0.1203   0.001351      0.156  0.002876    0.3321
157_d3_37128_d3_1     0.8657     0.1203   0.001351      0.156  0.002875    0.3321
157_d3_37129_d3_1     0.8657     0.1203   0.001351      0.156  0.002875    0.3321
157_d3_10364_d3_1     0.8651     0.1202          0          0         0         0
157_d3_10365_d3_1     0.8651     0.1202          0          0         0         0
157_d3_10018_d3_1     0.8651     0.1202          0          0         0         0
157_d3_10019_d3_1     0.8651     0.1202          0          0         0         0
157_d3_10014_d3_1     0.8656     0.1202   0.001362     0.1574  0.002882    0.3329
151_d3_628            0.8656     0.1202   0.001363     0.1574  0.002882    0.3329
157_d3_10240_d3_1     0.8623     0.1198   0.001622     0.1881  0.002436    0.2825
157_d3_10251_d3_1     0.8623     0.1198   0.001617     0.1875  0.002435    0.2824
157_d3_10252_d3_1     0.8623     0.1198          0          0         0         0
157_d3_10253_d3_1     0.8623     0.1198          0          0         0         0
157_d3_10346_d3_1     0.8622     0.1198          0          0         0         0
157_d3_10347_d3_1     0.8622     0.1198          0          0         0         0
157_d3_10269_d3_1     0.8618     0.1197   0.001687     0.1958  0.002347    0.2724
157_d3_26376_d3_1     0.8615     0.1197    0.00173     0.2009  0.002289    0.2657
157_d3_26377_d3_1     0.8611     0.1196   0.001766     0.2051  0.002246    0.2608
157_d3_10258_d3_1     0.8608     0.1196   0.001799      0.209  0.002207    0.2563
157_d3_10260_d3_1     0.8608     0.1196   0.001799      0.209  0.002207    0.2563
157_d3_29483_d3_1     0.8612     0.1196          0          0         0         0
157_d3_29482_d3_1     0.8612     0.1196          0          0         0         0
157_d3_29484_d3_1     0.8612     0.1196          0          0         0         0
157_d3_10345_d3_1     0.8612     0.1196          0          0         0         0
157_d3_10261_d3_1     0.8612     0.1196          0          0         0         0
157_d3_10262_d3_1     0.8612     0.1196          0          0         0         0
157_d3_10272_d3_1     0.8606     0.1195    0.00183     0.2126  0.002177     0.253
151_d3_630            0.8606     0.1195    0.00183     0.2126  0.002177    0.2529
157_d3_10273_d3_1     0.8605     0.1195   0.001832     0.2129  0.002175    0.2527
157_d3_10341_d3_1     0.8604     0.1195   0.001848     0.2148  0.002159    0.2509
157_d3_10263_d3_1     0.8604     0.1195   0.001848     0.2148  0.002159    0.2509
157_d3_10264_d3_1     0.8598     0.1194   0.001909      0.222  0.002098     0.244
157_d3_10265_d3_1     0.8606     0.1195          0          0         0         0
157_d3_10265_d3_2     0.8605     0.1195          0          0         0         0
157_d3_10266_d3_1     0.8605     0.1195          0          0         0         0
157_d3_10336_d3_1     0.8605     0.1195          0          0         0         0
157_d3_10337_d3_1     0.8605     0.1195          0          0         0         0
157_d3_10267_d3_1     0.8604     0.1195          0          0         0         0
157_d3_10338_d3_1     0.8605     0.1195          0          0         0         0
157_d3_10339_d3_1     0.8604     0.1195          0          0         0         0
157_d3_9985_d3_1      0.8582     0.1192   0.002046     0.2384  0.002019    0.2352
157_d3_9986_d3_1       0.858     0.1192   0.002062     0.2404   0.00201    0.2343
157_d3_9907_d3_3      0.8785      0.122   0.000399    0.04542  0.001614    0.1837
151_d3_618            0.8785      0.122  0.0003997     0.0455  0.001614    0.1837
157_d3_9922_d3_1      0.8782      0.122  0.0004437    0.05053  0.001706    0.1943
...